New "LineCode.100-71b_1" nphases=1 baseFreq=60 r1=0.975 x1=0.47 units=km normamps=152
New "LineCode.100-71b_2" nphases=2 baseFreq=60 r1=0.975 x1=0.47 units=km normamps=152
New "LineCode.100-71b_3" nphases=3 baseFreq=60 r1=0.975 x1=0.47 units=km normamps=152
New "LineCode.100-71b_4" nphases=4 baseFreq=60 r1=0.975 x1=0.47 units=km normamps=152
New "LineCode.100-71n_1" nphases=1 baseFreq=60 r1=0.975 x1=0.47 units=km normamps=152
New "LineCode.100-71n_2" nphases=2 baseFreq=60 r1=0.975 x1=0.47 units=km normamps=152
New "LineCode.100-71n_3" nphases=3 baseFreq=60 r1=0.975 x1=0.47 units=km normamps=152
New "LineCode.100-71n_4" nphases=4 baseFreq=60 r1=0.975 x1=0.47 units=km normamps=152
New "LineCode.101-71b_1" nphases=1 baseFreq=60 r1=1.551 x1=0.49 units=km normamps=114
New "LineCode.101-71b_2" nphases=2 baseFreq=60 r1=1.551 x1=0.49 units=km normamps=114
New "LineCode.101-71b_3" nphases=3 baseFreq=60 r1=1.551 x1=0.49 units=km normamps=114
New "LineCode.101-71b_4" nphases=4 baseFreq=60 r1=1.551 x1=0.49 units=km normamps=114
New "LineCode.102-71b_1" nphases=1 baseFreq=60 r1=0.975 x1=0.47 units=km normamps=152
New "LineCode.102-71b_2" nphases=2 baseFreq=60 r1=0.975 x1=0.47 units=km normamps=152
New "LineCode.102-71b_3" nphases=3 baseFreq=60 r1=0.975 x1=0.47 units=km normamps=152
New "LineCode.102-71b_4" nphases=4 baseFreq=60 r1=0.975 x1=0.47 units=km normamps=152
New "LineCode.10-31a_1" nphases=1 baseFreq=60 r1=0.119 x1=0.518 units=km normamps=880
New "LineCode.10-31a_2" nphases=2 baseFreq=60 r1=0.119 x1=0.518 units=km normamps=880
New "LineCode.10-31a_3" nphases=3 baseFreq=60 r1=0.119 x1=0.518 units=km normamps=880
New "LineCode.10-31a_4" nphases=4 baseFreq=60 r1=0.119 x1=0.518 units=km normamps=880
New "LineCode.103-71n_1" nphases=1 baseFreq=60 r1=18.325 x1=0.494 units=km normamps=35
New "LineCode.103-71n_2" nphases=2 baseFreq=60 r1=18.325 x1=0.494 units=km normamps=35
New "LineCode.103-71n_3" nphases=3 baseFreq=60 r1=18.325 x1=0.494 units=km normamps=35
New "LineCode.103-71n_4" nphases=4 baseFreq=60 r1=18.325 x1=0.494 units=km normamps=35
New "LineCode.104-71n_1" nphases=1 baseFreq=60 r1=29.142 x1=0.513 units=km normamps=25
New "LineCode.104-71n_2" nphases=2 baseFreq=60 r1=29.142 x1=0.513 units=km normamps=25
New "LineCode.104-71n_3" nphases=3 baseFreq=60 r1=29.142 x1=0.513 units=km normamps=25
New "LineCode.104-71n_4" nphases=4 baseFreq=60 r1=29.142 x1=0.513 units=km normamps=25
New "LineCode.105-71n_1" nphases=1 baseFreq=60 r1=11.411 x1=0.52 units=km normamps=65
New "LineCode.105-71n_2" nphases=2 baseFreq=60 r1=11.411 x1=0.52 units=km normamps=65
New "LineCode.105-71n_3" nphases=3 baseFreq=60 r1=11.411 x1=0.52 units=km normamps=65
New "LineCode.105-71n_4" nphases=4 baseFreq=60 r1=11.411 x1=0.52 units=km normamps=65
New "LineCode.10-61a_1" nphases=1 baseFreq=60 r1=0.119 x1=0.518 units=km normamps=880
New "LineCode.10-61a_2" nphases=2 baseFreq=60 r1=0.119 x1=0.518 units=km normamps=880
New "LineCode.10-61a_3" nphases=3 baseFreq=60 r1=0.119 x1=0.518 units=km normamps=880
New "LineCode.10-61a_4" nphases=4 baseFreq=60 r1=0.119 x1=0.518 units=km normamps=880
New "LineCode.106-71b_1" nphases=1 baseFreq=60 r1=2.469 x1=0.6 units=km normamps=105
New "LineCode.106-71b_2" nphases=2 baseFreq=60 r1=2.469 x1=0.6 units=km normamps=105
New "LineCode.106-71b_3" nphases=3 baseFreq=60 r1=2.469 x1=0.6 units=km normamps=105
New "LineCode.106-71b_4" nphases=4 baseFreq=60 r1=2.469 x1=0.6 units=km normamps=105
New "LineCode.106-71n_1" nphases=1 baseFreq=60 r1=2.469 x1=0.6 units=km normamps=105
New "LineCode.106-71n_2" nphases=2 baseFreq=60 r1=2.469 x1=0.6 units=km normamps=105
New "LineCode.106-71n_3" nphases=3 baseFreq=60 r1=2.469 x1=0.6 units=km normamps=105
New "LineCode.106-71n_4" nphases=4 baseFreq=60 r1=2.469 x1=0.6 units=km normamps=105
New "LineCode.10-71a_1" nphases=1 baseFreq=60 r1=0.119 x1=0.518 units=km normamps=880
New "LineCode.10-71a_2" nphases=2 baseFreq=60 r1=0.119 x1=0.518 units=km normamps=880
New "LineCode.10-71a_3" nphases=3 baseFreq=60 r1=0.119 x1=0.518 units=km normamps=880
New "LineCode.10-71a_4" nphases=4 baseFreq=60 r1=0.119 x1=0.518 units=km normamps=880
New "LineCode.10-71b_1" nphases=1 baseFreq=60 r1=1.551 x1=0.49 units=km normamps=114
New "LineCode.10-71b_2" nphases=2 baseFreq=60 r1=1.551 x1=0.49 units=km normamps=114
New "LineCode.10-71b_3" nphases=3 baseFreq=60 r1=1.551 x1=0.49 units=km normamps=114
New "LineCode.10-71b_4" nphases=4 baseFreq=60 r1=1.551 x1=0.49 units=km normamps=114
New "LineCode.10-71n_1" nphases=1 baseFreq=60 r1=1.551 x1=0.49 units=km normamps=114
New "LineCode.10-71n_2" nphases=2 baseFreq=60 r1=1.551 x1=0.49 units=km normamps=114
New "LineCode.10-71n_3" nphases=3 baseFreq=60 r1=1.551 x1=0.49 units=km normamps=114
New "LineCode.10-71n_4" nphases=4 baseFreq=60 r1=1.551 x1=0.49 units=km normamps=114
New "LineCode.107-42_1" nphases=1 baseFreq=60 r1=3.514 x1=0.13 units=km normamps=47
New "LineCode.107-42_2" nphases=2 baseFreq=60 r1=3.514 x1=0.13 units=km normamps=47
New "LineCode.107-42_3" nphases=3 baseFreq=60 r1=3.514 x1=0.13 units=km normamps=47
New "LineCode.107-42_4" nphases=4 baseFreq=60 r1=3.514 x1=0.13 units=km normamps=47
New "LineCode.107-44_1" nphases=1 baseFreq=60 r1=3.514 x1=0.13 units=km normamps=47
New "LineCode.107-44_2" nphases=2 baseFreq=60 r1=3.514 x1=0.13 units=km normamps=47
New "LineCode.107-44_3" nphases=3 baseFreq=60 r1=3.514 x1=0.13 units=km normamps=47
New "LineCode.107-44_4" nphases=4 baseFreq=60 r1=3.514 x1=0.13 units=km normamps=47
New "LineCode.107-51b_1" nphases=1 baseFreq=60 r1=3.514 x1=0.13 units=km normamps=47
New "LineCode.107-51b_2" nphases=2 baseFreq=60 r1=3.514 x1=0.13 units=km normamps=47
New "LineCode.107-51b_3" nphases=3 baseFreq=60 r1=3.514 x1=0.13 units=km normamps=47
New "LineCode.107-51b_4" nphases=4 baseFreq=60 r1=3.514 x1=0.13 units=km normamps=47
New "LineCode.108-43_1" nphases=1 baseFreq=60 r1=2.179 x1=0.12 units=km normamps=61
New "LineCode.108-43_2" nphases=2 baseFreq=60 r1=2.179 x1=0.12 units=km normamps=61
New "LineCode.108-43_3" nphases=3 baseFreq=60 r1=2.179 x1=0.12 units=km normamps=61
New "LineCode.108-43_4" nphases=4 baseFreq=60 r1=2.179 x1=0.12 units=km normamps=61
New "LineCode.108-44_1" nphases=1 baseFreq=60 r1=2.179 x1=0.12 units=km normamps=61
New "LineCode.108-44_2" nphases=2 baseFreq=60 r1=2.179 x1=0.12 units=km normamps=61
New "LineCode.108-44_3" nphases=3 baseFreq=60 r1=2.179 x1=0.12 units=km normamps=61
New "LineCode.108-44_4" nphases=4 baseFreq=60 r1=2.179 x1=0.12 units=km normamps=61
New "LineCode.108-51b_1" nphases=1 baseFreq=60 r1=2.179 x1=0.12 units=km normamps=61
New "LineCode.108-51b_2" nphases=2 baseFreq=60 r1=2.179 x1=0.12 units=km normamps=61
New "LineCode.108-51b_3" nphases=3 baseFreq=60 r1=2.179 x1=0.12 units=km normamps=61
New "LineCode.108-51b_4" nphases=4 baseFreq=60 r1=2.179 x1=0.12 units=km normamps=61
New "LineCode.109-44_1" nphases=1 baseFreq=60 r1=1.369 x1=0.12 units=km normamps=78
New "LineCode.109-44_2" nphases=2 baseFreq=60 r1=1.369 x1=0.12 units=km normamps=78
New "LineCode.109-44_3" nphases=3 baseFreq=60 r1=1.369 x1=0.12 units=km normamps=78
New "LineCode.109-44_4" nphases=4 baseFreq=60 r1=1.369 x1=0.12 units=km normamps=78
New "LineCode.109-51b_1" nphases=1 baseFreq=60 r1=1.369 x1=0.12 units=km normamps=78
New "LineCode.109-51b_2" nphases=2 baseFreq=60 r1=1.369 x1=0.12 units=km normamps=78
New "LineCode.109-51b_3" nphases=3 baseFreq=60 r1=1.369 x1=0.12 units=km normamps=78
New "LineCode.109-51b_4" nphases=4 baseFreq=60 r1=1.369 x1=0.12 units=km normamps=78
New "LineCode.110-44_1" nphases=1 baseFreq=60 r1=0.991 x1=0.11 units=km normamps=94
New "LineCode.110-44_2" nphases=2 baseFreq=60 r1=0.991 x1=0.11 units=km normamps=94
New "LineCode.110-44_3" nphases=3 baseFreq=60 r1=0.991 x1=0.11 units=km normamps=94
New "LineCode.110-44_4" nphases=4 baseFreq=60 r1=0.991 x1=0.11 units=km normamps=94
New "LineCode.110-51b_1" nphases=1 baseFreq=60 r1=0.991 x1=0.11 units=km normamps=94
New "LineCode.110-51b_2" nphases=2 baseFreq=60 r1=0.991 x1=0.11 units=km normamps=94
New "LineCode.110-51b_3" nphases=3 baseFreq=60 r1=0.991 x1=0.11 units=km normamps=94
New "LineCode.110-51b_4" nphases=4 baseFreq=60 r1=0.991 x1=0.11 units=km normamps=94
New "LineCode.111-51b_1" nphases=1 baseFreq=60 r1=0.732 x1=0.11 units=km normamps=112
New "LineCode.111-51b_2" nphases=2 baseFreq=60 r1=0.732 x1=0.11 units=km normamps=112
New "LineCode.111-51b_3" nphases=3 baseFreq=60 r1=0.732 x1=0.11 units=km normamps=112
New "LineCode.111-51b_4" nphases=4 baseFreq=60 r1=0.732 x1=0.11 units=km normamps=112
New "LineCode.112-51b_1" nphases=1 baseFreq=60 r1=0.506 x1=0.11 units=km normamps=138
New "LineCode.112-51b_2" nphases=2 baseFreq=60 r1=0.506 x1=0.11 units=km normamps=138
New "LineCode.112-51b_3" nphases=3 baseFreq=60 r1=0.506 x1=0.11 units=km normamps=138
New "LineCode.112-51b_4" nphases=4 baseFreq=60 r1=0.506 x1=0.11 units=km normamps=138
New "LineCode.113-51b_1" nphases=1 baseFreq=60 r1=0.365 x1=0.1 units=km normamps=164
New "LineCode.113-51b_2" nphases=2 baseFreq=60 r1=0.365 x1=0.1 units=km normamps=164
New "LineCode.113-51b_3" nphases=3 baseFreq=60 r1=0.365 x1=0.1 units=km normamps=164
New "LineCode.113-51b_4" nphases=4 baseFreq=60 r1=0.365 x1=0.1 units=km normamps=164
New "LineCode.114-51b_1" nphases=1 baseFreq=60 r1=0.289 x1=0.1 units=km normamps=186
New "LineCode.114-51b_2" nphases=2 baseFreq=60 r1=0.289 x1=0.1 units=km normamps=186
New "LineCode.114-51b_3" nphases=3 baseFreq=60 r1=0.289 x1=0.1 units=km normamps=186
New "LineCode.114-51b_4" nphases=4 baseFreq=60 r1=0.289 x1=0.1 units=km normamps=186
New "LineCode.115-51b_1" nphases=1 baseFreq=60 r1=0.236 x1=0.1 units=km normamps=210
New "LineCode.115-51b_2" nphases=2 baseFreq=60 r1=0.236 x1=0.1 units=km normamps=210
New "LineCode.115-51b_3" nphases=3 baseFreq=60 r1=0.236 x1=0.1 units=km normamps=210
New "LineCode.115-51b_4" nphases=4 baseFreq=60 r1=0.236 x1=0.1 units=km normamps=210
New "LineCode.11-61a_1" nphases=1 baseFreq=60 r1=0.195 x1=0.402 units=km normamps=502.8
New "LineCode.11-61a_2" nphases=2 baseFreq=60 r1=0.195 x1=0.402 units=km normamps=502.8
New "LineCode.11-61a_3" nphases=3 baseFreq=60 r1=0.195 x1=0.402 units=km normamps=502.8
New "LineCode.11-61a_4" nphases=4 baseFreq=60 r1=0.195 x1=0.402 units=km normamps=502.8
New "LineCode.116-51b_1" nphases=1 baseFreq=60 r1=0.188 x1=0.1 units=km normamps=236
New "LineCode.116-51b_2" nphases=2 baseFreq=60 r1=0.188 x1=0.1 units=km normamps=236
New "LineCode.116-51b_3" nphases=3 baseFreq=60 r1=0.188 x1=0.1 units=km normamps=236
New "LineCode.116-51b_4" nphases=4 baseFreq=60 r1=0.188 x1=0.1 units=km normamps=236
New "LineCode.11-71a_1" nphases=1 baseFreq=60 r1=0.195 x1=0.402 units=km normamps=502.8
New "LineCode.11-71a_2" nphases=2 baseFreq=60 r1=0.195 x1=0.402 units=km normamps=502.8
New "LineCode.11-71a_3" nphases=3 baseFreq=60 r1=0.195 x1=0.402 units=km normamps=502.8
New "LineCode.11-71a_4" nphases=4 baseFreq=60 r1=0.195 x1=0.402 units=km normamps=502.8
New "LineCode.11-71b_1" nphases=1 baseFreq=60 r1=1.551 x1=0.49 units=km normamps=114
New "LineCode.11-71b_2" nphases=2 baseFreq=60 r1=1.551 x1=0.49 units=km normamps=114
New "LineCode.11-71b_3" nphases=3 baseFreq=60 r1=1.551 x1=0.49 units=km normamps=114
New "LineCode.11-71b_4" nphases=4 baseFreq=60 r1=1.551 x1=0.49 units=km normamps=114
New "LineCode.11-71n_1" nphases=1 baseFreq=60 r1=1.551 x1=0.49 units=km normamps=114
New "LineCode.11-71n_2" nphases=2 baseFreq=60 r1=1.551 x1=0.49 units=km normamps=114
New "LineCode.11-71n_3" nphases=3 baseFreq=60 r1=1.551 x1=0.49 units=km normamps=114
New "LineCode.11-71n_4" nphases=4 baseFreq=60 r1=1.551 x1=0.49 units=km normamps=114
New "LineCode.117-51b_1" nphases=1 baseFreq=60 r1=0.143 x1=0.1 units=km normamps=272
New "LineCode.117-51b_2" nphases=2 baseFreq=60 r1=0.143 x1=0.1 units=km normamps=272
New "LineCode.117-51b_3" nphases=3 baseFreq=60 r1=0.143 x1=0.1 units=km normamps=272
New "LineCode.117-51b_4" nphases=4 baseFreq=60 r1=0.143 x1=0.1 units=km normamps=272
New "LineCode.118-51m_1" nphases=1 baseFreq=60 r1=0.991 x1=0.17 units=km normamps=83
New "LineCode.118-51m_2" nphases=2 baseFreq=60 r1=0.991 x1=0.17 units=km normamps=83
New "LineCode.118-51m_3" nphases=3 baseFreq=60 r1=0.991 x1=0.17 units=km normamps=83
New "LineCode.118-51m_4" nphases=4 baseFreq=60 r1=0.991 x1=0.17 units=km normamps=83
New "LineCode.119-51m_1" nphases=1 baseFreq=60 r1=0.732 x1=0.16 units=km normamps=98
New "LineCode.119-51m_2" nphases=2 baseFreq=60 r1=0.732 x1=0.16 units=km normamps=98
New "LineCode.119-51m_3" nphases=3 baseFreq=60 r1=0.732 x1=0.16 units=km normamps=98
New "LineCode.119-51m_4" nphases=4 baseFreq=60 r1=0.732 x1=0.16 units=km normamps=98
New "LineCode.120-31m_1" nphases=1 baseFreq=60 r1=0.506 x1=0.15 units=km normamps=120
New "LineCode.120-31m_2" nphases=2 baseFreq=60 r1=0.506 x1=0.15 units=km normamps=120
New "LineCode.120-31m_3" nphases=3 baseFreq=60 r1=0.506 x1=0.15 units=km normamps=120
New "LineCode.120-31m_4" nphases=4 baseFreq=60 r1=0.506 x1=0.15 units=km normamps=120
New "LineCode.121-31m_1" nphases=1 baseFreq=60 r1=0.365 x1=0.15 units=km normamps=143
New "LineCode.121-31m_2" nphases=2 baseFreq=60 r1=0.365 x1=0.15 units=km normamps=143
New "LineCode.121-31m_3" nphases=3 baseFreq=60 r1=0.365 x1=0.15 units=km normamps=143
New "LineCode.121-31m_4" nphases=4 baseFreq=60 r1=0.365 x1=0.15 units=km normamps=143
New "LineCode.12-31a_1" nphases=1 baseFreq=60 r1=0.165 x1=0.471 units=km normamps=502
New "LineCode.12-31a_2" nphases=2 baseFreq=60 r1=0.165 x1=0.471 units=km normamps=502
New "LineCode.12-31a_3" nphases=3 baseFreq=60 r1=0.165 x1=0.471 units=km normamps=502
New "LineCode.12-31a_4" nphases=4 baseFreq=60 r1=0.165 x1=0.471 units=km normamps=502
New "LineCode.123-31m_1" nphases=1 baseFreq=60 r1=0.236 x1=0.14 units=km normamps=182
New "LineCode.123-31m_2" nphases=2 baseFreq=60 r1=0.236 x1=0.14 units=km normamps=182
New "LineCode.123-31m_3" nphases=3 baseFreq=60 r1=0.236 x1=0.14 units=km normamps=182
New "LineCode.123-31m_4" nphases=4 baseFreq=60 r1=0.236 x1=0.14 units=km normamps=182
New "LineCode.12-61a_1" nphases=1 baseFreq=60 r1=0.165 x1=0.471 units=km normamps=502
New "LineCode.12-61a_2" nphases=2 baseFreq=60 r1=0.165 x1=0.471 units=km normamps=502
New "LineCode.12-61a_3" nphases=3 baseFreq=60 r1=0.165 x1=0.471 units=km normamps=502
New "LineCode.12-61a_4" nphases=4 baseFreq=60 r1=0.165 x1=0.471 units=km normamps=502
New "LineCode.126-51m_1" nphases=1 baseFreq=60 r1=0.115 x1=0.12 units=km normamps=305
New "LineCode.126-51m_2" nphases=2 baseFreq=60 r1=0.115 x1=0.12 units=km normamps=305
New "LineCode.126-51m_3" nphases=3 baseFreq=60 r1=0.115 x1=0.12 units=km normamps=305
New "LineCode.126-51m_4" nphases=4 baseFreq=60 r1=0.115 x1=0.12 units=km normamps=305
New "LineCode.12-71a_1" nphases=1 baseFreq=60 r1=0.165 x1=0.471 units=km normamps=502
New "LineCode.12-71a_2" nphases=2 baseFreq=60 r1=0.165 x1=0.471 units=km normamps=502
New "LineCode.12-71a_3" nphases=3 baseFreq=60 r1=0.165 x1=0.471 units=km normamps=502
New "LineCode.12-71a_4" nphases=4 baseFreq=60 r1=0.165 x1=0.471 units=km normamps=502
New "LineCode.12-71b_1" nphases=1 baseFreq=60 r1=0.613 x1=0.45 units=km normamps=203
New "LineCode.12-71b_2" nphases=2 baseFreq=60 r1=0.613 x1=0.45 units=km normamps=203
New "LineCode.12-71b_3" nphases=3 baseFreq=60 r1=0.613 x1=0.45 units=km normamps=203
New "LineCode.12-71b_4" nphases=4 baseFreq=60 r1=0.613 x1=0.45 units=km normamps=203
New "LineCode.127-51b_1" nphases=1 baseFreq=60 r1=2.082 x1=0.12 units=km normamps=61
New "LineCode.127-51b_2" nphases=2 baseFreq=60 r1=2.082 x1=0.12 units=km normamps=61
New "LineCode.127-51b_3" nphases=3 baseFreq=60 r1=2.082 x1=0.12 units=km normamps=61
New "LineCode.127-51b_4" nphases=4 baseFreq=60 r1=2.082 x1=0.12 units=km normamps=61
New "LineCode.127-71_1" nphases=1 baseFreq=60 r1=2.082 x1=0.12 units=km normamps=61
New "LineCode.127-71_2" nphases=2 baseFreq=60 r1=2.082 x1=0.12 units=km normamps=61
New "LineCode.127-71_3" nphases=3 baseFreq=60 r1=2.082 x1=0.12 units=km normamps=61
New "LineCode.127-71_4" nphases=4 baseFreq=60 r1=2.082 x1=0.12 units=km normamps=61
New "LineCode.128-51b_1" nphases=1 baseFreq=60 r1=1.308 x1=0.12 units=km normamps=79
New "LineCode.128-51b_2" nphases=2 baseFreq=60 r1=1.308 x1=0.12 units=km normamps=79
New "LineCode.128-51b_3" nphases=3 baseFreq=60 r1=1.308 x1=0.12 units=km normamps=79
New "LineCode.128-51b_4" nphases=4 baseFreq=60 r1=1.308 x1=0.12 units=km normamps=79
New "LineCode.128-71_1" nphases=1 baseFreq=60 r1=1.308 x1=0.12 units=km normamps=79
New "LineCode.128-71_2" nphases=2 baseFreq=60 r1=1.308 x1=0.12 units=km normamps=79
New "LineCode.128-71_3" nphases=3 baseFreq=60 r1=1.308 x1=0.12 units=km normamps=79
New "LineCode.128-71_4" nphases=4 baseFreq=60 r1=1.308 x1=0.12 units=km normamps=79
New "LineCode.129-51b_1" nphases=1 baseFreq=60 r1=0.827 x1=0.12 units=km normamps=101
New "LineCode.129-51b_2" nphases=2 baseFreq=60 r1=0.827 x1=0.12 units=km normamps=101
New "LineCode.129-51b_3" nphases=3 baseFreq=60 r1=0.827 x1=0.12 units=km normamps=101
New "LineCode.129-51b_4" nphases=4 baseFreq=60 r1=0.827 x1=0.12 units=km normamps=101
New "LineCode.129-71_1" nphases=1 baseFreq=60 r1=0.827 x1=0.12 units=km normamps=101
New "LineCode.129-71_2" nphases=2 baseFreq=60 r1=0.827 x1=0.12 units=km normamps=101
New "LineCode.129-71_3" nphases=3 baseFreq=60 r1=0.827 x1=0.12 units=km normamps=101
New "LineCode.129-71_4" nphases=4 baseFreq=60 r1=0.827 x1=0.12 units=km normamps=101
New "LineCode.130-51b_1" nphases=1 baseFreq=60 r1=0.596 x1=0.11 units=km normamps=122
New "LineCode.130-51b_2" nphases=2 baseFreq=60 r1=0.596 x1=0.11 units=km normamps=122
New "LineCode.130-51b_3" nphases=3 baseFreq=60 r1=0.596 x1=0.11 units=km normamps=122
New "LineCode.130-51b_4" nphases=4 baseFreq=60 r1=0.596 x1=0.11 units=km normamps=122
New "LineCode.1-31m_1" nphases=1 baseFreq=60 r1=0.195 x1=0.4 units=km normamps=419
New "LineCode.1-31m_2" nphases=2 baseFreq=60 r1=0.195 x1=0.4 units=km normamps=419
New "LineCode.1-31m_3" nphases=3 baseFreq=60 r1=0.195 x1=0.4 units=km normamps=419
New "LineCode.1-31m_4" nphases=4 baseFreq=60 r1=0.195 x1=0.4 units=km normamps=419
New "LineCode.132-51b_1" nphases=1 baseFreq=60 r1=0.305 x1=0.1 units=km normamps=178
New "LineCode.132-51b_2" nphases=2 baseFreq=60 r1=0.305 x1=0.1 units=km normamps=178
New "LineCode.132-51b_3" nphases=3 baseFreq=60 r1=0.305 x1=0.1 units=km normamps=178
New "LineCode.132-51b_4" nphases=4 baseFreq=60 r1=0.305 x1=0.1 units=km normamps=178
New "LineCode.134-51b_1" nphases=1 baseFreq=60 r1=0.175 x1=0.1 units=km normamps=240
New "LineCode.134-51b_2" nphases=2 baseFreq=60 r1=0.175 x1=0.1 units=km normamps=240
New "LineCode.134-51b_3" nphases=3 baseFreq=60 r1=0.175 x1=0.1 units=km normamps=240
New "LineCode.134-51b_4" nphases=4 baseFreq=60 r1=0.175 x1=0.1 units=km normamps=240
New "LineCode.13-61a_1" nphases=1 baseFreq=60 r1=0.119 x1=0.528 units=km normamps=562
New "LineCode.13-61a_2" nphases=2 baseFreq=60 r1=0.119 x1=0.528 units=km normamps=562
New "LineCode.13-61a_3" nphases=3 baseFreq=60 r1=0.119 x1=0.528 units=km normamps=562
New "LineCode.13-61a_4" nphases=4 baseFreq=60 r1=0.119 x1=0.528 units=km normamps=562
New "LineCode.136-51b_1" nphases=1 baseFreq=60 r1=0.114 x1=0.1 units=km normamps=304
New "LineCode.136-51b_2" nphases=2 baseFreq=60 r1=0.114 x1=0.1 units=km normamps=304
New "LineCode.136-51b_3" nphases=3 baseFreq=60 r1=0.114 x1=0.1 units=km normamps=304
New "LineCode.136-51b_4" nphases=4 baseFreq=60 r1=0.114 x1=0.1 units=km normamps=304
New "LineCode.13-71a_1" nphases=1 baseFreq=60 r1=0.119 x1=0.528 units=km normamps=562
New "LineCode.13-71a_2" nphases=2 baseFreq=60 r1=0.119 x1=0.528 units=km normamps=562
New "LineCode.13-71a_3" nphases=3 baseFreq=60 r1=0.119 x1=0.528 units=km normamps=562
New "LineCode.13-71a_4" nphases=4 baseFreq=60 r1=0.119 x1=0.528 units=km normamps=562
New "LineCode.13-71b_1" nphases=1 baseFreq=60 r1=0.613 x1=0.45 units=km normamps=203
New "LineCode.13-71b_2" nphases=2 baseFreq=60 r1=0.613 x1=0.45 units=km normamps=203
New "LineCode.13-71b_3" nphases=3 baseFreq=60 r1=0.613 x1=0.45 units=km normamps=203
New "LineCode.13-71b_4" nphases=4 baseFreq=60 r1=0.613 x1=0.45 units=km normamps=203
New "LineCode.13-71n_1" nphases=1 baseFreq=60 r1=0.975 x1=0.45 units=km normamps=203
New "LineCode.13-71n_2" nphases=2 baseFreq=60 r1=0.975 x1=0.45 units=km normamps=203
New "LineCode.13-71n_3" nphases=3 baseFreq=60 r1=0.975 x1=0.45 units=km normamps=203
New "LineCode.13-71n_4" nphases=4 baseFreq=60 r1=0.975 x1=0.45 units=km normamps=203
New "LineCode.137-51b_1" nphases=1 baseFreq=60 r1=0.087 x1=0.1 units=km normamps=351
New "LineCode.137-51b_2" nphases=2 baseFreq=60 r1=0.087 x1=0.1 units=km normamps=351
New "LineCode.137-51b_3" nphases=3 baseFreq=60 r1=0.087 x1=0.1 units=km normamps=351
New "LineCode.137-51b_4" nphases=4 baseFreq=60 r1=0.087 x1=0.1 units=km normamps=351
New "LineCode.138-51m_1" nphases=1 baseFreq=60 r1=0.596 x1=0.16 units=km normamps=108
New "LineCode.138-51m_2" nphases=2 baseFreq=60 r1=0.596 x1=0.16 units=km normamps=108
New "LineCode.138-51m_3" nphases=3 baseFreq=60 r1=0.596 x1=0.16 units=km normamps=108
New "LineCode.138-51m_4" nphases=4 baseFreq=60 r1=0.596 x1=0.16 units=km normamps=108
New "LineCode.139-51m_1" nphases=1 baseFreq=60 r1=0.441 x1=0.16 units=km normamps=127
New "LineCode.139-51m_2" nphases=2 baseFreq=60 r1=0.441 x1=0.16 units=km normamps=127
New "LineCode.139-51m_3" nphases=3 baseFreq=60 r1=0.441 x1=0.16 units=km normamps=127
New "LineCode.139-51m_4" nphases=4 baseFreq=60 r1=0.441 x1=0.16 units=km normamps=127
New "LineCode.140-31m_1" nphases=1 baseFreq=60 r1=0.305 x1=0.15 units=km normamps=154
New "LineCode.140-31m_2" nphases=2 baseFreq=60 r1=0.305 x1=0.15 units=km normamps=154
New "LineCode.140-31m_3" nphases=3 baseFreq=60 r1=0.305 x1=0.15 units=km normamps=154
New "LineCode.140-31m_4" nphases=4 baseFreq=60 r1=0.305 x1=0.15 units=km normamps=154
New "LineCode.141-31m_1" nphases=1 baseFreq=60 r1=0.22 x1=0.14 units=km normamps=184
New "LineCode.141-31m_2" nphases=2 baseFreq=60 r1=0.22 x1=0.14 units=km normamps=184
New "LineCode.141-31m_3" nphases=3 baseFreq=60 r1=0.22 x1=0.14 units=km normamps=184
New "LineCode.141-31m_4" nphases=4 baseFreq=60 r1=0.22 x1=0.14 units=km normamps=184
New "LineCode.142-51m_1" nphases=1 baseFreq=60 r1=0.175 x1=0.13 units=km normamps=209
New "LineCode.142-51m_2" nphases=2 baseFreq=60 r1=0.175 x1=0.13 units=km normamps=209
New "LineCode.142-51m_3" nphases=3 baseFreq=60 r1=0.175 x1=0.13 units=km normamps=209
New "LineCode.142-51m_4" nphases=4 baseFreq=60 r1=0.175 x1=0.13 units=km normamps=209
New "LineCode.14-31a_1" nphases=1 baseFreq=60 r1=0.486 x1=0.564 units=km normamps=234.3
New "LineCode.14-31a_2" nphases=2 baseFreq=60 r1=0.486 x1=0.564 units=km normamps=234.3
New "LineCode.14-31a_3" nphases=3 baseFreq=60 r1=0.486 x1=0.564 units=km normamps=234.3
New "LineCode.14-31a_4" nphases=4 baseFreq=60 r1=0.486 x1=0.564 units=km normamps=234.3
New "LineCode.143-31m_1" nphases=1 baseFreq=60 r1=0.142 x1=0.13 units=km normamps=234
New "LineCode.143-31m_2" nphases=2 baseFreq=60 r1=0.142 x1=0.13 units=km normamps=234
New "LineCode.143-31m_3" nphases=3 baseFreq=60 r1=0.142 x1=0.13 units=km normamps=234
New "LineCode.143-31m_4" nphases=4 baseFreq=60 r1=0.142 x1=0.13 units=km normamps=234
New "LineCode.144-31m_1" nphases=1 baseFreq=60 r1=0.114 x1=0.13 units=km normamps=263
New "LineCode.144-31m_2" nphases=2 baseFreq=60 r1=0.114 x1=0.13 units=km normamps=263
New "LineCode.144-31m_3" nphases=3 baseFreq=60 r1=0.114 x1=0.13 units=km normamps=263
New "LineCode.144-31m_4" nphases=4 baseFreq=60 r1=0.114 x1=0.13 units=km normamps=263
New "LineCode.14-61a_1" nphases=1 baseFreq=60 r1=0.486 x1=0.564 units=km normamps=234.3
New "LineCode.14-61a_2" nphases=2 baseFreq=60 r1=0.486 x1=0.564 units=km normamps=234.3
New "LineCode.14-61a_3" nphases=3 baseFreq=60 r1=0.486 x1=0.564 units=km normamps=234.3
New "LineCode.14-61a_4" nphases=4 baseFreq=60 r1=0.486 x1=0.564 units=km normamps=234.3
New "LineCode.146-51m_1" nphases=1 baseFreq=60 r1=0.056 x1=0.12 units=km normamps=382
New "LineCode.146-51m_2" nphases=2 baseFreq=60 r1=0.056 x1=0.12 units=km normamps=382
New "LineCode.146-51m_3" nphases=3 baseFreq=60 r1=0.056 x1=0.12 units=km normamps=382
New "LineCode.146-51m_4" nphases=4 baseFreq=60 r1=0.056 x1=0.12 units=km normamps=382
New "LineCode.14-71a_1" nphases=1 baseFreq=60 r1=0.486 x1=0.564 units=km normamps=234.3
New "LineCode.14-71a_2" nphases=2 baseFreq=60 r1=0.486 x1=0.564 units=km normamps=234.3
New "LineCode.14-71a_3" nphases=3 baseFreq=60 r1=0.486 x1=0.564 units=km normamps=234.3
New "LineCode.14-71a_4" nphases=4 baseFreq=60 r1=0.486 x1=0.564 units=km normamps=234.3
New "LineCode.15-61a_1" nphases=1 baseFreq=60 r1=0.386 x1=0.421 units=km normamps=396
New "LineCode.15-61a_2" nphases=2 baseFreq=60 r1=0.386 x1=0.421 units=km normamps=396
New "LineCode.15-61a_3" nphases=3 baseFreq=60 r1=0.386 x1=0.421 units=km normamps=396
New "LineCode.15-61a_4" nphases=4 baseFreq=60 r1=0.386 x1=0.421 units=km normamps=396
New "LineCode.15-71b_1" nphases=1 baseFreq=60 r1=0.486 x1=0.44 units=km normamps=235
New "LineCode.15-71b_2" nphases=2 baseFreq=60 r1=0.486 x1=0.44 units=km normamps=235
New "LineCode.15-71b_3" nphases=3 baseFreq=60 r1=0.486 x1=0.44 units=km normamps=235
New "LineCode.15-71b_4" nphases=4 baseFreq=60 r1=0.486 x1=0.44 units=km normamps=235
New "LineCode.1-61a_1" nphases=1 baseFreq=60 r1=0.195 x1=0.457 units=km normamps=451.8
New "LineCode.1-61a_2" nphases=2 baseFreq=60 r1=0.195 x1=0.457 units=km normamps=451.8
New "LineCode.1-61a_3" nphases=3 baseFreq=60 r1=0.195 x1=0.457 units=km normamps=451.8
New "LineCode.1-61a_4" nphases=4 baseFreq=60 r1=0.195 x1=0.457 units=km normamps=451.8
New "LineCode.16-61a_1" nphases=1 baseFreq=60 r1=0.217 x1=0.461 units=km normamps=418.4
New "LineCode.16-61a_2" nphases=2 baseFreq=60 r1=0.217 x1=0.461 units=km normamps=418.4
New "LineCode.16-61a_3" nphases=3 baseFreq=60 r1=0.217 x1=0.461 units=km normamps=418.4
New "LineCode.16-61a_4" nphases=4 baseFreq=60 r1=0.217 x1=0.461 units=km normamps=418.4
New "LineCode.16-71a_1" nphases=1 baseFreq=60 r1=0.217 x1=0.461 units=km normamps=418.4
New "LineCode.16-71a_2" nphases=2 baseFreq=60 r1=0.217 x1=0.461 units=km normamps=418.4
New "LineCode.16-71a_3" nphases=3 baseFreq=60 r1=0.217 x1=0.461 units=km normamps=418.4
New "LineCode.16-71a_4" nphases=4 baseFreq=60 r1=0.217 x1=0.461 units=km normamps=418.4
New "LineCode.18-71b_1" nphases=1 baseFreq=60 r1=0.306 x1=0.42 units=km normamps=314
New "LineCode.18-71b_2" nphases=2 baseFreq=60 r1=0.306 x1=0.42 units=km normamps=314
New "LineCode.18-71b_3" nphases=3 baseFreq=60 r1=0.306 x1=0.42 units=km normamps=314
New "LineCode.18-71b_4" nphases=4 baseFreq=60 r1=0.306 x1=0.42 units=km normamps=314
New "LineCode.22-71b_1" nphases=1 baseFreq=60 r1=0.975 x1=0.47 units=km normamps=152
New "LineCode.22-71b_2" nphases=2 baseFreq=60 r1=0.975 x1=0.47 units=km normamps=152
New "LineCode.22-71b_3" nphases=3 baseFreq=60 r1=0.975 x1=0.47 units=km normamps=152
New "LineCode.22-71b_4" nphases=4 baseFreq=60 r1=0.975 x1=0.47 units=km normamps=152
New "LineCode.22-71n_1" nphases=1 baseFreq=60 r1=0.975 x1=0.47 units=km normamps=152
New "LineCode.22-71n_2" nphases=2 baseFreq=60 r1=0.975 x1=0.47 units=km normamps=152
New "LineCode.22-71n_3" nphases=3 baseFreq=60 r1=0.975 x1=0.47 units=km normamps=152
New "LineCode.22-71n_4" nphases=4 baseFreq=60 r1=0.975 x1=0.47 units=km normamps=152
New "LineCode.2-31m_1" nphases=1 baseFreq=60 r1=0.245 x1=0.42 units=km normamps=362
New "LineCode.2-31m_2" nphases=2 baseFreq=60 r1=0.245 x1=0.42 units=km normamps=362
New "LineCode.2-31m_3" nphases=3 baseFreq=60 r1=0.245 x1=0.42 units=km normamps=362
New "LineCode.2-31m_4" nphases=4 baseFreq=60 r1=0.245 x1=0.42 units=km normamps=362
New "LineCode.23-71b_1" nphases=1 baseFreq=60 r1=0.613 x1=0.45 units=km normamps=203
New "LineCode.23-71b_2" nphases=2 baseFreq=60 r1=0.613 x1=0.45 units=km normamps=203
New "LineCode.23-71b_3" nphases=3 baseFreq=60 r1=0.613 x1=0.45 units=km normamps=203
New "LineCode.23-71b_4" nphases=4 baseFreq=60 r1=0.613 x1=0.45 units=km normamps=203
New "LineCode.23-71n_1" nphases=1 baseFreq=60 r1=0.613 x1=0.45 units=km normamps=203
New "LineCode.23-71n_2" nphases=2 baseFreq=60 r1=0.613 x1=0.45 units=km normamps=203
New "LineCode.23-71n_3" nphases=3 baseFreq=60 r1=0.613 x1=0.45 units=km normamps=203
New "LineCode.23-71n_4" nphases=4 baseFreq=60 r1=0.613 x1=0.45 units=km normamps=203
New "LineCode.24-71n_1" nphases=1 baseFreq=60 r1=0.486 x1=0.44 units=km normamps=235
New "LineCode.24-71n_2" nphases=2 baseFreq=60 r1=0.486 x1=0.44 units=km normamps=235
New "LineCode.24-71n_3" nphases=3 baseFreq=60 r1=0.486 x1=0.44 units=km normamps=235
New "LineCode.24-71n_4" nphases=4 baseFreq=60 r1=0.486 x1=0.44 units=km normamps=235
New "LineCode.26-44b_1" nphases=1 baseFreq=60 r1=0.991 x1=0.1 units=km normamps=100
New "LineCode.26-44b_2" nphases=2 baseFreq=60 r1=0.991 x1=0.1 units=km normamps=100
New "LineCode.26-44b_3" nphases=3 baseFreq=60 r1=0.991 x1=0.1 units=km normamps=100
New "LineCode.26-44b_4" nphases=4 baseFreq=60 r1=0.991 x1=0.1 units=km normamps=100
New "LineCode.27-44b_1" nphases=1 baseFreq=60 r1=0.506 x1=0.1 units=km normamps=157
New "LineCode.27-44b_2" nphases=2 baseFreq=60 r1=0.506 x1=0.1 units=km normamps=157
New "LineCode.27-44b_3" nphases=3 baseFreq=60 r1=0.506 x1=0.1 units=km normamps=157
New "LineCode.27-44b_4" nphases=4 baseFreq=60 r1=0.506 x1=0.1 units=km normamps=157
New "LineCode.28-44b_1" nphases=1 baseFreq=60 r1=0.365 x1=0.1 units=km normamps=196
New "LineCode.28-44b_2" nphases=2 baseFreq=60 r1=0.365 x1=0.1 units=km normamps=196
New "LineCode.28-44b_3" nphases=3 baseFreq=60 r1=0.365 x1=0.1 units=km normamps=196
New "LineCode.28-44b_4" nphases=4 baseFreq=60 r1=0.365 x1=0.1 units=km normamps=196
New "LineCode.29-31m_1" nphases=1 baseFreq=60 r1=1.551 x1=0.49 units=km normamps=114
New "LineCode.29-31m_2" nphases=2 baseFreq=60 r1=1.551 x1=0.49 units=km normamps=114