New "LoadShape.default" npts=24 interval=1 mult=[ 0.677 0.6256 0.6087 0.5833 0.58028 0.6025 0.657 0.7477 0.832 0.88 0.94 0.989 0.985 0.98 0.9898 0.999 1 0.958 0.936 0.913 0.876 0.876 0.828 0.756]
New "LoadShape.mt-tipo1_do" npts=24 interval=1 mult=[ 0.6501 0.62703 0.606051 0.623578 0.593054 0.594467 0.596055 0.420801 0.483122 0.450333 0.449351 0.442529 0.599438 0.716986 0.792251 0.717806 0.792593 0.680061 0.824942 1 0.861457 0.913179 0.866523 0.6568]
New "LoadShape.mt-tipo1_du" npts=24 interval=1 mult=[ 0.376117 0.339566 0.329314 0.31281 0.32869 0.32144 0.299313 0.32411 0.347909 0.426836 0.459452 0.454217 0.499874 0.552276 0.674421 0.660869 0.629693 0.68185 0.862343 0.950145 1 0.921186 0.757338 0.569583]
New "LoadShape.mt-tipo1_sa" npts=24 interval=1 mult=[ 0.460633 0.439176 0.433865 0.431138 0.444595 0.433965 0.438535 0.354652 0.412717 0.530854 0.559757 0.564909 0.613501 0.767678 0.841385 0.832983 0.794217 0.817767 0.872038 1 0.942485 0.924343 0.757938 0.594583]
New "LoadShape.mt-tipo2_do" npts=24 interval=1 mult=[ 0.836593 0.791921 0.789635 0.775117 0.757571 0.743926 0.780594 0.776427 0.801516 0.863297 0.894452 0.929196 0.929589 0.87378 0.902294 0.898024 0.908092 0.912849 0.949211 1 0.9791 0.943673 0.864936 0.829478]
New "LoadShape.mt-tipo2_du" npts=24 interval=1 mult=[ 0.451167 0.409903 0.393528 0.39863 0.390879 0.418013 0.520303 0.68133 0.841295 0.877918 0.924042 0.916186 0.901048 0.954954 1 0.999083 0.982506 0.887576 0.823379 0.779893 0.743298 0.691347 0.595582 0.531058]
New "LoadShape.mt-tipo2_sa" npts=24 interval=1 mult=[ 0.721299 0.664211 0.641652 0.638259 0.642655 0.645333 0.729426 0.759513 0.887646 0.98461 0.977431 1 0.979452 0.943703 0.956773 0.925871 0.905567 0.853402 0.837994 0.865567 0.844096 0.793236 0.745013 0.691383]
New "LoadShape.mt-tipo3_do" npts=24 interval=1 mult=[ 0.650628 0.641808 0.698559 0.754675 0.750419 0.739848 0.821406 0.794082 0.835386 0.867721 0.795037 0.829421 0.881849 0.936507 0.958121 1 0.964226 0.84447 0.82597 0.801588 0.807063 0.861928 0.855864 0.761332]
New "LoadShape.mt-tipo3_du" npts=24 interval=1 mult=[ 0.725339 0.695035 0.710486 0.713161 0.678455 0.682661 0.767538 0.720488 0.747832 0.853739 0.859798 0.860569 0.906978 0.939266 0.986929 1 0.981545 0.780623 0.13108 0.0759694 0.100715 0.541673 0.691263 0.658588]
New "LoadShape.mt-tipo3_sa" npts=24 interval=1 mult=[ 0.815709 0.75809 0.748785 0.743739 0.735735 0.70806 0.812238 0.863038 0.933853 0.998703 0.997372 1 0.992944 0.891482 0.907448 0.920179 0.888323 0.93895 0.912123 0.899175 0.856969 0.806849 0.713117 0.695168]
New "LoadShape.mt-tipo4_do" npts=24 interval=1 mult=[ 0.937207 0.91334 0.924121 0.930793 0.930807 0.906626 0.92361 0.899546 0.888792 0.923828 0.920075 0.962652 0.930753 0.939714 0.944443 0.914248 0.959475 0.918108 0.981777 0.979055 0.981314 1 0.977505 0.970303]
New "LoadShape.mt-tipo4_du" npts=24 interval=1 mult=[ 0.0683808 0.0729022 0.0732089 0.0748538 0.0948855 0.133892 0.240677 0.496584 0.8092 0.98629 1 0.919726 0.644329 0.813138 0.906526 0.896488 0.830206 0.490628 0.155146 0.11355 0.0919993 0.0798394 0.0738352 0.065458]
New "LoadShape.mt-tipo4_sa" npts=24 interval=1 mult=[ 0.451636 0.469215 0.482314 0.459131 0.485121 0.509916 0.600889 0.783571 0.909265 0.940326 1 0.885956 0.684916 0.63803 0.634656 0.607756 0.52651 0.512735 0.488787 0.481542 0.460774 0.453183 0.460424 0.460961]
New "LoadShape.mt-tipo5_do" npts=24 interval=1 mult=[ 0.872185 0.849194 0.828178 0.813136 0.803864 0.810794 0.795698 0.752242 0.813462 0.835636 0.890504 0.943047 0.989951 1 0.990723 0.986333 0.941171 0.94525 0.979016 0.994866 0.986954 0.94623 0.925206 0.895264]
New "LoadShape.mt-tipo5_du" npts=24 interval=1 mult=[ 0.232695 0.214912 0.21188 0.207861 0.204898 0.204835 0.217474 0.280767 0.484914 0.650522 0.799094 0.915627 0.909375 0.967799 1 0.99465 0.965835 0.798332 0.559562 0.39606 0.277834 0.261619 0.256034 0.232637]
New "LoadShape.mt-tipo5_sa" npts=24 interval=1 mult=[ 0.7253 0.711143 0.709061 0.700735 0.686254 0.670257 0.66678 0.66683 0.788222 0.852701 0.926545 0.958461 0.969545 0.976715 0.989817 1 0.948784 0.884085 0.855135 0.83033 0.85085 0.818698 0.767143 0.743954]
New "LoadShape.mt-tipo6_do" npts=24 interval=1 mult=[ 0.939966 0.9173 0.902773 0.852551 0.858211 0.869823 0.850447 0.884815 0.865937 0.844922 0.901494 0.921337 0.938826 0.95178 0.946908 0.993165 1 0.988011 0.992744 0.968196 0.98513 0.980732 0.965657 0.939307]
New "LoadShape.mt-tipo6_du" npts=24 interval=1 mult=[ 0.813947 0.804669 0.787401 0.734498 0.747016 0.760501 0.78726 0.825645 0.83768 0.907031 0.914012 0.930305 0.940894 0.948822 0.980591 0.977441 1 0.973872 0.905171 0.911274 0.883168 0.875828 0.846262 0.841413]
New "LoadShape.mt-tipo6_sa" npts=24 interval=1 mult=[ 0.865203 0.858464 0.840552 0.793298 0.801182 0.807997 0.822039 0.853726 0.836548 0.909884 0.925117 0.907002 0.911272 0.94748 0.962797 0.959948 1 0.959584 0.913586 0.936949 0.915604 0.894952 0.90066 0.889202]
New "LoadShape.com-tipo1_do" npts=24 interval=1 mult=[ 0.908832 0.903846 0.916742 0.901302 0.873491 0.929404 0.883636 0.943827 0.936964 0.966885 0.989056 0.997313 0.981239 0.932439 0.960868 0.984674 0.932682 0.949834 0.983017 1 0.986778 0.964817 0.934374 0.921239]
New "LoadShape.com-tipo1_du" npts=24 interval=1 mult=[ 0.792019 0.776807 0.766992 0.766681 0.774684 0.796865 0.825028 0.882 0.918143 0.944064 0.949946 0.967037 0.975537 0.954257 0.995527 0.979193 1 0.97437 0.995729 0.966689 0.964849 0.899119 0.873133 0.850274]
New "LoadShape.com-tipo1_sa" npts=24 interval=1 mult=[ 0.875581 0.873398 0.84008 0.849208 0.866308 0.89242 0.896751 0.915485 0.925025 0.955851 1 0.962662 0.9935 0.965455 0.964048 0.971316 0.927491 0.926879 0.970282 0.972673 0.934438 0.901367 0.855112 0.850615]
New "LoadShape.com-tipo2_do" npts=24 interval=1 mult=[ 0.874516 0.82425 0.91677 0.867306 0.816111 0.843023 0.813449 0.67268 0.787511 0.771168 0.78307 0.898738 0.885943 0.851705 0.867355 0.915503 0.902721 0.846488 0.948955 0.931672 1 0.850063 0.859298 0.868905]
New "LoadShape.com-tipo2_du" npts=24 interval=1 mult=[ 0.218884 0.237559 0.24824 0.208437 0.221832 0.225499 0.228985 0.33103 0.480335 0.692266 0.765215 0.901479 0.880634 0.929686 0.844959 1 0.864519 0.619319 0.407918 0.29593 0.294195 0.236837 0.230414 0.224505]
New "LoadShape.com-tipo2_sa" npts=24 interval=1 mult=[ 0.666213 0.724915 0.72974 0.6544 0.659724 0.639819 0.6645 0.728953 0.859744 0.917925 1 0.949108 0.981114 0.924445 0.845355 0.792242 0.764555 0.745445 0.835605 0.819213 0.805409 0.836417 0.787196 0.769465]
New "LoadShape.com-tipo3_do" npts=24 interval=1 mult=[ 0.726401 0.652791 0.630386 0.606663 0.572076 0.621684 0.582078 0.611727 0.612998 0.580404 0.61166 0.637101 0.667682 0.710692 0.7012 0.718845 0.749692 0.740974 0.921064 1 0.903914 0.831807 0.807768 0.751986]
New "LoadShape.com-tipo3_du" npts=24 interval=1 mult=[ 0.632044 0.539499 0.51527 0.483008 0.459963 0.499515 0.526997 0.512484 0.592103 0.555638 0.596592 0.628565 0.628794 0.608644 0.785375 0.837139 0.818142 0.901256 0.920414 1 0.905323 0.865039 0.791677 0.649086]
New "LoadShape.com-tipo3_sa" npts=24 interval=1 mult=[ 0.752564 0.679333 0.652321 0.59852 0.572609 0.642558 0.611166 0.652706 0.730776 0.785134 0.732086 0.748674 0.754406 0.830513 0.792946 0.801878 0.769915 0.810183 0.964216 0.958004 1 0.913611 0.923203 0.865163]
New "LoadShape.com-tipo4_do" npts=24 interval=1 mult=[ 0.405347 0.355413 0.382997 0.314697 0.27302 0.350886 0.326298 0.328995 0.430268 0.617079 0.563075 0.550099 0.531291 0.432229 0.443533 0.494751 0.552186 0.589971 0.821286 1 0.965769 0.688796 0.537878 0.47085]
New "LoadShape.com-tipo4_du" npts=24 interval=1 mult=[ 0.517482 0.387193 0.342785 0.334025 0.330015 0.313581 0.405007 0.430827 0.340831 0.322549 0.372452 0.306272 0.358284 0.348428 0.416759 0.435804 0.448716 0.444714 0.645577 1 0.86966 0.807089 0.508193 0.48473]
New "LoadShape.com-tipo4_sa" npts=24 interval=1 mult=[ 0.706347 0.549406 0.554664 0.513384 0.48341 0.553636 0.495917 0.476981 0.513443 0.511101 0.585514 0.61464 0.536819 0.526154 0.586697 0.60627 0.710687 0.740303 0.750379 1 0.944149 0.880734 0.759289 0.677578]
New "LoadShape.com-tipo5_do" npts=24 interval=1 mult=[ 0.939226 0.922103 0.891778 0.878564 0.878794 0.860968 0.831709 0.847638 0.883411 0.972521 0.955658 0.970762 0.9825 0.997751 1 0.992973 0.946491 0.91521 0.931186 0.948061 0.97213 0.900406 0.890086 0.911198]
New "LoadShape.com-tipo5_du" npts=24 interval=1 mult=[ 0.198882 0.202401 0.18829 0.186719 0.19926 0.192748 0.238873 0.414536 0.717817 0.842417 0.887161 0.920043 0.852622 0.916943 0.98341 1 0.958979 0.83763 0.526444 0.368264 0.27465 0.247674 0.24128 0.225366]
New "LoadShape.com-tipo5_sa" npts=24 interval=1 mult=[ 0.500863 0.49967 0.480508 0.496255 0.491151 0.470457 0.508308 0.630162 0.849852 0.945795 0.98459 1 0.780584 0.705541 0.682668 0.695573 0.625354 0.630175 0.564135 0.574453 0.537444 0.563445 0.530841 0.519738]
New "LoadShape.ind-tipo1_do" npts=24 interval=1 mult=[ 0.760112 0.729421 0.702659 0.680409 0.648369 0.630775 0.612715 0.528165 0.590109 0.451808 0.61916 0.546144 0.614263 0.55947 0.557223 0.58839 0.633697 0.710036 0.799306 1 0.748355 0.976965 0.952373 0.811153]
New "LoadShape.ind-tipo1_du" npts=24 interval=1 mult=[ 0.652093 0.648922 0.50857 0.456742 0.427982 0.480487 0.508706 0.344039 0.448237 0.331249 0.338811 0.418651 0.483435 0.519177 0.474701 0.463918 0.538701 0.612311 0.736527 0.910578 0.845139 0.723495 1 0.75069]
New "LoadShape.ind-tipo1_sa" npts=24 interval=1 mult=[ 0.611705 0.556581 0.527477 0.511795 0.495906 0.560756 0.489948 0.422866 0.588968 0.525364 0.505328 0.584475 0.686164 0.59393 0.546875 0.693956 0.677284 0.726539 1 0.985251 0.857284 0.864263 0.780559 0.801397]
New "LoadShape.ind-tipo2_do" npts=24 interval=1 mult=[ 0.912371 0.916815 0.889988 0.912351 0.902045 0.916222 0.881749 0.894474 0.881589 0.957929 0.969217 0.938099 0.970503 0.938477 0.972322 0.980656 0.97745 0.995584 0.999906 1 0.979896 0.96796 0.972479 0.938452]
New "LoadShape.ind-tipo2_du" npts=24 interval=1 mult=[ 0.0970135 0.093724 0.0904061 0.0926999 0.102741 0.114404 0.158166 0.345209 0.804438 0.909742 0.956884 0.895988 0.724948 0.89017 1 0.945693 0.878767 0.659961 0.267706 0.143143 0.104993 0.108957 0.106104 0.100074]
New "LoadShape.ind-tipo2_sa" npts=24 interval=1 mult=[ 0.509356 0.51234 0.49067 0.494123 0.47283 0.486535 0.510092 0.665957 0.877324 0.9976 1 0.956594 0.804755 0.788718 0.779023 0.745795 0.629948 0.584438 0.587969 0.550344 0.534611 0.5309 0.510769 0.491643]
New "LoadShape.ind-tipo3_do" npts=24 interval=1 mult=[ 0.912288 0.902737 0.884757 0.860916 0.905991 0.912979 0.935602 0.936451 0.97302 0.978194 0.934642 0.970453 1 0.990966 0.960341 0.979643 0.955021 0.89638 0.957194 0.917305 0.856254 0.881704 0.94442 0.898948]
New "LoadShape.ind-tipo3_du" npts=24 interval=1 mult=[ 0.796654 0.790546 0.761576 0.742857 0.854913 0.878602 0.879217 0.865452 0.918474 0.927926 0.964615 0.995335 0.929407 0.966303 1 0.917364 0.882895 0.76458 0.755464 0.796848 0.823161 0.846156 0.831887 0.809178]
New "LoadShape.ind-tipo3_sa" npts=24 interval=1 mult=[ 0.807977 0.775933 0.762322 0.809607 0.846473 0.889442 0.861731 0.884404 0.962247 0.995382 0.963725 1 0.941286 0.949139 0.954129 0.905668 0.945715 0.868623 0.906886 0.886569 0.91525 0.905583 0.831252 0.786402]
New "LoadShape.ind-tipo4_do" npts=24 interval=1 mult=[ 0.723665 0.74187 0.711313 0.725911 0.639862 0.689835 0.652253 0.70675 0.799311 0.797966 0.926654 0.80944 0.811277 0.734165 0.787911 0.801735 0.851795 0.890925 1 0.969398 0.974643 0.87504 0.827529 0.747877]
New "LoadShape.ind-tipo4_du" npts=24 interval=1 mult=[ 0.405944 0.365482 0.385495 0.369979 0.40236 0.413657 0.46317 0.592654 0.715312 0.792622 0.862283 0.853026 0.75886 0.842996 0.93082 0.951003 0.970577 0.937082 0.998355 1 0.890323 0.754735 0.619866 0.512947]
New "LoadShape.ind-tipo4_sa" npts=24 interval=1 mult=[ 0.571262 0.532037 0.504708 0.535442 0.551223 0.597201 0.694802 0.727122 0.836068 0.982375 0.958848 0.989478 0.926682 0.852279 0.865668 0.805564 0.747226 0.828058 0.912641 1 0.905324 0.7593 0.644065 0.720926]
New "LoadShape.ind-tipo5_do" npts=24 interval=1 mult=[ 0.919041 0.883243 0.919388 0.88676 0.913274 0.827489 0.778241 0.900154 0.778565 0.825102 0.967396 0.967037 0.952909 0.872389 0.816928 0.856778 0.915152 0.850919 0.957719 0.912565 1 0.976643 0.902391 0.927837]
New "LoadShape.ind-tipo5_du" npts=24 interval=1 mult=[ 0.136773 0.117626 0.120643 0.118095 0.115643 0.117569 0.133108 0.231967 0.636696 0.867311 0.798446 0.609572 0.443567 0.676752 0.785899 1 0.974095 0.757844 0.340649 0.237033 0.149739 0.129109 0.117231 0.123727]
New "LoadShape.ind-tipo5_sa" npts=24 interval=1 mult=[ 0.652809 0.604217 0.529461 0.607301 0.525821 0.501132 0.516932 0.626857 0.880042 0.918884 1 0.80807 0.561925 0.642004 0.638489 0.601012 0.573403 0.623778 0.594331 0.62003 0.584016 0.467467 0.577727 0.541314]
New "LoadShape.ip-tipo1_do" npts=24 interval=1 mult=[ 1 1 1 1 1 0.792 0.083 0 0 0 0 0 0 0 0 0 0 0.125 0.917 1 1 1 1 1]
New "LoadShape.ip-tipo1_du" npts=24 interval=1 mult=[ 1 1 1 1 1 0.792 0.083 0 0 0 0 0 0 0 0 0 0 0.125 0.917 1 1 1 1 1]
New "LoadShape.ip-tipo1_sa" npts=24 interval=1 mult=[ 1 1 1 1 1 0.792 0.083 0 0 0 0 0 0 0 0 0 0 0.125 0.917 1 1 1 1 1]
New "LoadShape.res-tipo1_do" npts=24 interval=1 mult=[ 0.830054 0.831917 0.838338 0.760206 0.755004 0.75998 0.736674 0.795959 0.868815 0.811888 0.90886 0.905297 0.940029 1 0.975204 0.986211 0.909754 0.789233 0.935257 0.990867 0.943145 0.968996 0.912472 0.883079]
New "LoadShape.res-tipo1_du" npts=24 interval=1 mult=[ 0.135002 0.126512 0.126211 0.138314 0.146992 0.164851 0.223419 0.348458 0.574896 0.717509 0.777661 0.672394 0.764611 0.925693 1 0.958561 0.903603 0.626621 0.302868 0.268505 0.167302 0.162674 0.144323 0.13971]
New "LoadShape.res-tipo1_sa" npts=24 interval=1 mult=[ 0.507321 0.519453 0.464475 0.483961 0.499667 0.455898 0.447336 0.636972 0.877433 0.999099 1 0.9314 0.9058 0.768235 0.752521 0.713337 0.682987 0.698327 0.677261 0.592424 0.556524 0.600105 0.570801 0.545938]
New "LoadShape.res-tipo2_do" npts=24 interval=1 mult=[ 0.760524 0.707027 0.676478 0.652959 0.582212 0.580825 0.658813 0.58975 0.618123 0.751288 0.72031 0.797088 0.84681 0.781024 0.794143 0.817551 0.807264 0.820013 0.931547 0.963092 0.999102 1 0.91627 0.852407]
New "LoadShape.res-tipo2_du" npts=24 interval=1 mult=[ 0.793538 0.673556 0.611218 0.5794 0.530855 0.550066 0.636459 0.540936 0.533906 0.508542 0.56893 0.604515 0.680261 0.613633 0.576892 0.549514 0.538293 0.580039 0.640794 0.875936 1 0.948345 0.935164 0.842291]
New "LoadShape.res-tipo2_sa" npts=24 interval=1 mult=[ 0.782139 0.668731 0.620321 0.589918 0.593634 0.618728 0.556087 0.581158 0.564138 0.643565 0.706395 0.774391 0.798145 0.800831 0.822905 0.886973 0.949605 0.883417 0.929483 0.939842 0.894475 0.923712 1 0.87185]
New "LoadShape.res-tipo3_do" npts=24 interval=1 mult=[ 0.586261 0.467762 0.397764 0.380811 0.362444 0.370313 0.396344 0.43047 0.46655 0.525852 0.616983 0.616999 0.663699 0.599647 0.68095 0.64622 0.729664 0.902367 1 0.936096 0.870553 0.82676 0.740812 0.620128]
New "LoadShape.res-tipo3_du" npts=24 interval=1 Pmult=[ 0.339713 0.288706 0.26008 0.26285 0.26907 0.349274 0.4821 0.388036 0.320042 0.355436 0.369889 0.461895 0.570487 0.423908 0.372792 0.363238 0.391525 0.444973 0.750817 0.948467 1 0.951673 0.687308 0.527136] qmult=[ 0.339713 0.288706 0.26008 0.26285 0.26907 0.349274 0.4821 0.388036 0.320042 0.355436 0.369889 0.461895 0.570487 0.423908 0.372792 0.363238 0.391525 0.444973 0.750817 0.948467 1 0.951673 0.687308 0.527136]
New "LoadShape.res-tipo3_sa" npts=24 interval=1 mult=[ 0.557903 0.420287 0.360868 0.321616 0.319048 0.359724 0.373369 0.453078 0.518336 0.45412 0.544614 0.597485 0.761015 0.670826 0.666679 0.665556 0.713805 0.701587 0.867628 1 0.933023 0.871475 0.836388 0.672212]
New "LoadShape.res-tipo4_do" npts=24 interval=1 mult=[ 0.819737 0.754668 0.724205 0.708018 0.685917 0.668084 0.698311 0.724673 0.770635 0.861488 0.86039 0.847235 0.868212 0.854204 0.890291 0.867567 0.947856 0.9993 0.965813 0.995987 1 0.976448 0.888139 0.858545]
New "LoadShape.res-tipo4_du" npts=24 interval=1 mult=[ 0.735127 0.692938 0.657908 0.64184 0.656435 0.655601 0.708584 0.715554 0.76279 0.827018 0.798553 0.861683 0.915765 0.872031 0.872284 0.914818 0.902968 0.968778 0.996744 1 0.963935 0.854534 0.820367 0.791624]
New "LoadShape.res-tipo4_sa" npts=24 interval=1 mult=[ 0.711382 0.657082 0.641643 0.617325 0.632304 0.630122 0.672232 0.662631 0.692446 0.779194 0.734119 0.808955 0.888041 0.864782 0.888944 0.884572 0.877305 0.886042 1 0.995088 0.981315 0.917358 0.906471 0.814629]
New "LoadShape.res-tipo5_do" npts=24 interval=1 mult=[ 0.564424 0.484927 0.452058 0.447067 0.433401 0.43587 0.47127 0.522298 0.590915 0.596766 0.695091 0.794874 0.757264 0.687904 0.64693 0.712645 0.806295 0.872907 0.933886 1 0.868668 0.8608 0.770769 0.68757]
New "LoadShape.res-tipo5_du" npts=24 interval=1 mult=[ 0.342607 0.316217 0.276835 0.281022 0.274548 0.309643 0.369615 0.390001 0.400569 0.490479 0.474838 0.549768 0.538462 0.531802 0.594671 0.559736 0.642632 0.770697 1 0.792384 0.664112 0.600764 0.496829 0.470755]
New "LoadShape.res-tipo5_sa" npts=24 interval=1 mult=[ 0.519071 0.483124 0.461619 0.414745 0.385346 0.422908 0.472725 0.511943 0.584174 0.591199 0.695807 0.809302 0.810768 0.778875 0.848698 0.824372 0.8325 0.926317 0.872027 1 0.889654 0.883932 0.692699 0.696948]
New "LoadShape.rur-tipo1_do" npts=24 interval=1 mult=[ 0.54571 0.416355 0.458496 0.348398 0.376109 0.413448 0.478878 0.503319 0.691305 0.687656 0.777912 0.7215 0.703836 0.715068 0.741337 0.801767 0.74284 0.736748 0.905699 1 0.971674 0.824774 0.629254 0.51874]
New "LoadShape.rur-tipo1_du" npts=24 interval=1 mult=[ 0.488908 0.350044 0.316412 0.289695 0.295094 0.354473 0.43841 0.427372 0.432298 0.446081 0.522224 0.586135 0.445287 0.446641 0.462805 0.489674 0.477356 0.625319 0.709086 0.983121 1 0.709948 0.568309 0.444173]
New "LoadShape.rur-tipo1_sa" npts=24 interval=1 mult=[ 0.499956 0.40403 0.387604 0.329889 0.384713 0.384296 0.420891 0.645974 0.681941 0.683271 0.864859 0.60992 0.615018 0.691837 0.686262 0.677699 0.685808 0.842693 1 0.983462 0.927733 0.885094 0.739471 0.604533]
New "LoadShape.rur-tipo2_do" npts=24 interval=1 mult=[ 0.428344 0.394392 0.415619 0.406342 0.333636 0.43614 0.49136 0.606848 0.814584 0.939568 0.948972 1 0.867898 0.753642 0.737356 0.713659 0.842624 0.59774 0.649252 0.545423 0.583228 0.527777 0.427137 0.375893]
New "LoadShape.rur-tipo2_du" npts=24 interval=1 mult=[ 0.266512 0.276031 0.290519 0.266851 0.273943 0.282474 0.359726 0.515693 0.708196 0.914729 0.987107 0.986527 0.979688 0.871806 1 0.881243 0.784763 0.676499 0.505028 0.361381 0.388 0.411346 0.349423 0.279284]
New "LoadShape.rur-tipo2_sa" npts=24 interval=1 mult=[ 0.384775 0.354198 0.396335 0.403665 0.439091 0.453769 0.560888 0.635704 0.657846 0.837434 0.941693 1 0.973533 0.909869 0.927207 0.866241 0.864545 0.770007 0.841008 0.758353 0.729511 0.582731 0.507245 0.422987]
New "LoadShape.rur-tipo3_do" npts=24 interval=1 mult=[ 0.691665 0.586879 0.584793 0.582154 0.559181 0.555673 0.600338 0.647092 0.70081 0.722792 0.708138 0.803525 0.855643 0.85048 0.839052 0.946064 0.840355 0.935617 0.976931 1 0.920201 0.785535 0.756972 0.72738]
New "LoadShape.rur-tipo3_du" npts=24 interval=1 mult=[ 0.492723 0.469731 0.445735 0.452056 0.439501 0.439742 0.505267 0.44346 0.483743 0.545524 0.515835 0.587293 0.627662 0.600436 0.605641 0.702689 0.665225 0.767406 0.994182 1 0.877777 0.817172 0.789512 0.686563]
New "LoadShape.rur-tipo3_sa" npts=24 interval=1 mult=[ 0.643252 0.579283 0.538441 0.55079 0.496269 0.495361 0.551794 0.620131 0.653229 0.760906 0.723012 0.774522 1 0.99171 0.9369 0.874585 0.873498 0.899893 0.99699 0.949293 0.995001 0.939447 0.881912 0.767524]
New "LoadShape.rur-tipo4_do" npts=24 interval=1 mult=[ 0.253601 0.27429 0.272758 0.261764 0.313498 0.574144 0.977008 1 0.86132 0.656613 0.704811 0.594721 0.494496 0.525942 0.456354 0.477347 0.819592 0.89177 0.848417 0.687937 0.622513 0.456588 0.364268 0.275605]
New "LoadShape.rur-tipo4_du" npts=24 interval=1 mult=[ 0.230235 0.210264 0.232022 0.194659 0.27125 0.452953 0.853597 1 0.763484 0.519618 0.462389 0.352145 0.297198 0.322001 0.328659 0.335165 0.504772 0.670848 0.740163 0.57797 0.436642 0.314543 0.271535 0.239842]
New "LoadShape.rur-tipo4_sa" npts=24 interval=1 mult=[ 0.328647 0.284755 0.295289 0.295077 0.407496 0.597287 0.969546 1 0.652378 0.684331 0.647209 0.506769 0.544728 0.598239 0.498792 0.527523 0.848566 0.931782 0.946951 0.705464 0.632465 0.561955 0.500101 0.361949]
New "LoadShape.rur-tipo5_do" npts=24 interval=1 mult=[ 0.697931 0.622011 0.616139 0.605544 0.598607 0.665195 0.702655 0.709515 0.834143 0.842608 0.922732 0.856571 0.950508 0.940212 0.963062 0.95092 0.941331 1 0.963293 0.973325 0.832942 0.819036 0.771595 0.699331]
New "LoadShape.rur-tipo5_du" npts=24 interval=1 mult=[ 0.570289 0.529493 0.504506 0.523514 0.531196 0.612659 0.674623 0.632839 0.787321 0.751336 0.862596 0.899291 0.960527 0.972713 0.996532 1 0.975066 0.918612 0.90033 0.937181 0.868605 0.84011 0.727064 0.634226]
New "LoadShape.rur-tipo5_sa" npts=24 interval=1 mult=[ 0.621152 0.575973 0.554224 0.541332 0.541602 0.624112 0.65329 0.643808 0.688962 0.804284 0.825227 0.849047 0.874769 0.904587 0.949979 0.914764 1 0.98105 0.951282 0.981705 0.860949 0.79445 0.715318 0.67072]
New "LoadShape.rur-tipo6_do" npts=24 interval=1 mult=[ 0.907976 0.854989 0.863565 0.838245 0.810894 0.822908 0.746689 0.801327 0.788112 0.750037 0.844225 0.905553 0.850325 0.889719 0.806141 0.791419 0.755869 0.852736 0.870781 1 0.994465 0.916098 0.962417 0.90458]
New "LoadShape.rur-tipo6_du" npts=24 interval=1 mult=[ 1 0.95478 0.948491 0.909838 0.91001 0.864678 0.731179 0.74674 0.68428 0.690401 0.653983 0.621057 0.701674 0.623102 0.683599 0.726319 0.761724 0.755727 0.85542 0.986588 0.982545 0.887305 0.915978 0.861182]
New "LoadShape.rur-tipo6_sa" npts=24 interval=1 mult=[ 0.797019 0.82165 0.773201 0.755663 0.757897 0.696775 0.658732 0.641763 0.670431 0.661352 0.762471 0.774248 0.729343 0.716294 0.796278 0.778627 0.714737 0.782019 0.934113 1 0.889536 0.887205 0.836699 0.830305]
New "LoadShape.sp-tipo1_do" npts=24 interval=1 mult=[ 0.994324 1 0.982452 0.979405 0.933444 0.946425 0.962155 0.928721 0.946113 0.958529 0.97109 0.961192 0.943099 0.94981 0.951421 0.943709 0.944182 0.954461 0.951243 0.957842 0.963113 0.977002 0.986821 0.974316]
New "LoadShape.sp-tipo1_du" npts=24 interval=1 mult=[ 0.981338 0.984664 0.966688 0.932911 0.929286 0.943861 0.954936 1 0.990458 0.972693 0.968342 0.958802 0.975127 0.988825 0.985565 0.980128 0.980567 0.980637 0.971612 0.983482 0.985254 0.972317 0.973095 0.956671]
New "LoadShape.sp-tipo1_sa" npts=24 interval=1 mult=[ 0.959947 0.955454 0.938249 0.897797 0.915397 0.909016 0.91935 0.928084 0.944597 0.949153 0.969307 0.97378 0.985822 0.985965 0.965433 0.97748 0.987594 0.98631 0.981666 0.98844 0.995136 0.99484 0.997393 1]
New "LoadShape.sp-tipo2_do" npts=24 interval=1 mult=[ 0.540352 0.512437 0.481842 0.367158 0.469592 0.468876 0.435245 0.466619 0.644785 0.840288 0.99766 0.971941 0.864424 1 0.931871 0.838408 0.873781 0.746968 0.876544 0.846219 0.653481 0.796413 0.695722 0.57417]
New "LoadShape.sp-tipo2_du" npts=24 interval=1 mult=[ 0.53669 0.420774 0.25664 0.144787 0.261732 0.330186 0.33568 0.538264 0.693209 0.847695 0.683799 1 0.935989 0.993462 0.90289 0.684829 0.864936 0.868699 0.631623 0.852865 0.9556 0.796902 0.601621 0.528564]
New "LoadShape.sp-tipo2_sa" npts=24 interval=1 mult=[ 0.628144 0.452813 0.367334 0.290645 0.401315 0.387551 0.463685 0.601639 0.586699 0.668487 0.768462 0.945677 0.986246 1 0.86018 0.936456 0.798889 0.891973 0.970404 0.88916 0.759675 0.654257 0.627788 0.526733]
New "LoadShape.sp-tipo3_do" npts=24 interval=1 mult=[ 0.590143 0.348898 0.310623 0.0968065 0.385933 0.402974 0.564301 0.613867 0.755013 0.849427 0.975662 1 0.944626 0.931866 0.907352 0.843311 0.889574 0.966483 0.983549 0.994727 0.907636 0.809797 0.745353 0.651852]
New "LoadShape.sp-tipo3_du" npts=24 interval=1 mult=[ 0.424067 0.256386 0.168299 0.061154 0.347669 0.349023 0.527537 0.715486 0.851558 0.865637 0.907363 0.995814 0.949323 0.928272 0.818379 0.836171 0.869829 0.89318 0.951109 1 0.940281 0.834559 0.794829 0.623973]
New "LoadShape.sp-tipo3_sa" npts=24 interval=1 mult=[ 0.52083 0.354104 0.159642 0.0500863 0.401495 0.376681 0.518168 0.659624 0.802789 0.902117 0.991211 1 0.957339 0.949195 0.932807 0.928744 0.941771 0.959088 0.899858 0.822461 0.794439 0.703767 0.593504 0.595759]
New "LoadShape.sp-tipo4_do" npts=24 interval=1 mult=[ 0.752355 0.521937 0.577262 0.459196 0.416934 0.560455 0.617542 0.60696 0.483316 0.507646 0.691186 0.686958 0.592827 0.6072 0.637211 0.595077 0.492583 0.658132 0.892369 1 0.958985 0.872989 0.856391 0.950217]
New "LoadShape.sp-tipo4_du" npts=24 interval=1 mult=[ 0.916178 0.786026 0.942917 0.893853 1 0.887961 0.527557 0.439433 0.39532 0.559904 0.565573 0.660846 0.500266 0.408973 0.370382 0.309014 0.286268 0.308146 0.650436 0.904746 0.995218 0.881509 0.693455 0.800489]
New "LoadShape.sp-tipo4_sa" npts=24 interval=1 mult=[ 1 0.944671 0.871522 0.677857 0.604265 0.625238 0.521742 0.672212 0.700479 0.622937 0.659713 0.794036 0.742254 0.704543 0.634598 0.74343 0.783666 0.754059 0.843794 0.978444 0.835413 0.769395 0.793394 0.885252]
New "LoadShape.curva" npts=24 interval=1 mult=[ 0.634316 0.578147 0.539073 0.531003 0.525749 0.549744 0.587742 0.572317 0.60903 0.669339 0.687685 0.744749 0.792011 0.749547 0.764052 0.753317 0.77208 0.815701 0.970132 1 0.979717 0.924896 0.819019 0.74193] qmult=[ 0.571517 0.514644 0.476076 0.468216 0.462964 0.486047 0.523746 0.508387 0.546471 0.610339 0.630359 0.691501 0.74493 0.698778 0.715539 0.703765 0.723656 0.770902 0.959666 1 0.97331 0.902128 0.772706 0.685271]
