New "Loadshape.COM-Tipo1_DO" 24 1.0 mult=(0.908831688 0.903845629 0.916741556 0.901301506 0.873491015 0.929404424 0.883635599 0.943826512 0.936963915 0.966885179 0.989056402 0.997313368 0.981238838 0.932439172 0.960868386 0.984673611 0.932682162 0.949834437 0.98301695 1 0.986778209 0.964817146 0.934374306 0.921239394)
New "Loadshape.COM-Tipo1_DU" 24 1.0 mult=(0.792019327 0.776807317 0.766992339 0.766680606 0.774683695 0.796864845 0.825028212 0.88200035 0.918143419 0.944063697 0.949945618 0.967037486 0.975537156 0.954257142 0.995527198 0.979193359 1 0.974369784 0.99572885 0.966689336 0.964848566 0.899119201 0.873133116 0.850273859)
New "Loadshape.COM-Tipo1_SA" 24 1.0 mult=(0.875580739 0.873397908 0.840080171 0.849207689 0.866308464 0.892419785 0.896751069 0.915484544 0.925024803 0.955850674 1 0.962661687 0.993499574 0.965455225 0.964047961 0.971315602 0.92749077 0.926879104 0.97028235 0.97267349 0.934437759 0.901366759 0.855111828 0.850614839)
New "Loadshape.COM-Tipo2_DO" 24 1.0 mult=(0.874516265 0.824250292 0.916770103 0.867306377 0.816110674 0.843023184 0.8134487 0.672679756 0.787510519 0.771167856 0.783070123 0.898738238 0.885942903 0.851704683 0.867354681 0.915503072 0.902720719 0.846487534 0.948955244 0.931671604 1 0.850063354 0.859298082 0.868904711)
New "Loadshape.COM-Tipo2_DU" 24 1.0 mult=(0.218884252 0.237559446 0.248240434 0.208436816 0.221831652 0.225498519 0.228985419 0.331029751 0.480335433 0.692265893 0.765215265 0.901478578 0.880633564 0.929686143 0.844958945 1 0.864518701 0.619318786 0.407917973 0.295930132 0.294195237 0.236836655 0.230414068 0.224504852)
New "Loadshape.COM-Tipo2_SA" 24 1.0 mult=(0.66621343 0.724914828 0.729739542 0.654400438 0.659723564 0.63981891 0.664499695 0.7289532 0.859743599 0.91792461 1 0.94910771 0.981113975 0.924445179 0.845355031 0.792241743 0.764555027 0.74544459 0.835605032 0.819213154 0.805408686 0.836417285 0.787196318 0.769465454)
New "Loadshape.COM-Tipo3_DO" 24 1.0 mult=(0.726400699 0.652791455 0.630385982 0.606663407 0.572075962 0.621684058 0.582077506 0.611726675 0.612998461 0.580404359 0.611660191 0.637101154 0.667681643 0.710692154 0.701200201 0.718844899 0.749692344 0.740973551 0.921064152 1 0.903914405 0.831807238 0.807767639 0.751986208)
New "Loadshape.COM-Tipo3_DU" 24 1.0 mult=(0.632043645 0.539499334 0.515269556 0.483008179 0.459962641 0.499514787 0.526997096 0.512483723 0.592102513 0.555637824 0.596592129 0.628565489 0.62879449 0.608644058 0.785375276 0.837139049 0.818142486 0.901255744 0.920413709 1 0.905322823 0.865039485 0.791676756 0.649086234)
New "Loadshape.COM-Tipo3_SA" 24 1.0 mult=(0.752563576 0.679333473 0.652320949 0.598519967 0.572608887 0.642558106 0.611166025 0.652706242 0.730775692 0.785134392 0.732086399 0.748673743 0.754406039 0.83051309 0.792946388 0.801878178 0.76991474 0.810182922 0.964216413 0.958004251 1 0.913610754 0.923203473 0.865163205)
New "Loadshape.COM-Tipo4_DO" 24 1.0 mult=(0.40534682 0.355412869 0.38299721 0.314697494 0.273020275 0.350885786 0.326297685 0.328995467 0.430268176 0.61707862 0.563075398 0.550098646 0.531291031 0.432229328 0.443532645 0.494750952 0.552186206 0.589970908 0.821286421 1 0.965768993 0.688796379 0.537878127 0.47084978)
New "Loadshape.COM-Tipo4_DU" 24 1.0 mult=(0.517481531 0.387192508 0.342784768 0.33402509 0.33001532 0.313580918 0.405007115 0.430827278 0.340831215 0.322549259 0.37245179 0.306271864 0.358283865 0.348427683 0.416759004 0.435804216 0.448715747 0.444714173 0.645577147 1 0.86966047 0.807089149 0.508193463 0.484729985)
New "Loadshape.COM-Tipo4_SA" 24 1.0 mult=(0.706347275 0.549405975 0.554663943 0.51338444 0.483410046 0.553635677 0.495917371 0.476981078 0.513443109 0.511101262 0.585514272 0.614640133 0.536819296 0.526154344 0.586697052 0.606269676 0.710687161 0.740302852 0.750379397 1 0.944149358 0.880733673 0.759288973 0.677578119)
New "Loadshape.COM-Tipo5_DO" 24 1.0 mult=(0.939226397 0.922102836 0.891778221 0.878564125 0.878793937 0.860967761 0.831709066 0.847638219 0.883411087 0.972520611 0.955658339 0.970761756 0.982500003 0.997751018 1 0.992972919 0.946490559 0.915210493 0.931186153 0.948060633 0.972129713 0.900406253 0.890085903 0.911198068)
New "Loadshape.COM-Tipo5_DU" 24 1.0 mult=(0.198882096 0.202401483 0.188289726 0.186718565 0.199259642 0.192747603 0.238872913 0.414536296 0.717816504 0.842417425 0.887161371 0.920043493 0.852621948 0.91694299 0.98341028 1 0.95897901 0.837629645 0.52644412 0.368264131 0.274649619 0.247673906 0.241280097 0.225365642)
New "Loadshape.COM-Tipo5_SA" 24 1.0 mult=(0.500862949 0.499669723 0.480508174 0.496255044 0.491151454 0.470456941 0.50830789 0.63016234 0.849852138 0.945795229 0.984589804 1 0.780583894 0.705540802 0.682667824 0.695573146 0.625354081 0.630174962 0.564134824 0.574453011 0.537443729 0.563444675 0.530840521 0.519737906)
New "Loadshape.IND-Tipo1_DO" 24 1.0 mult=(0.760112095 0.729421262 0.702658959 0.680409188 0.648369013 0.630774965 0.612715311 0.528165163 0.590109008 0.451807885 0.619159639 0.546144488 0.614262849 0.559469922 0.557222675 0.588390227 0.63369672 0.710035799 0.799305794 1 0.748355411 0.976964938 0.952372974 0.811152986)
New "Loadshape.IND-Tipo1_DU" 24 1.0 mult=(0.652093073 0.648922316 0.508569788 0.456741629 0.427981839 0.480487036 0.508705562 0.344039034 0.448236927 0.331249499 0.338811044 0.418650694 0.483434777 0.519177177 0.474701351 0.463917887 0.538701055 0.612310959 0.736527225 0.910577512 0.845139049 0.723495337 1 0.750689552)
New "Loadshape.IND-Tipo1_SA" 24 1.0 mult=(0.611704591 0.556580852 0.527476739 0.511795022 0.49590579 0.560756008 0.489947977 0.422866209 0.588968085 0.525363817 0.50532767 0.584474982 0.686163646 0.593930468 0.546875318 0.693956134 0.677283795 0.726539079 1 0.985250707 0.857284086 0.864263123 0.780558716 0.801397327)
New "Loadshape.IND-Tipo2_DO" 24 1.0 mult=(0.912370637 0.916815124 0.889987623 0.912350537 0.902045313 0.916221876 0.881748804 0.894473832 0.881588615 0.957929126 0.969217499 0.938099132 0.970503145 0.938476547 0.972321914 0.98065575 0.977450358 0.995583531 0.999905722 1 0.979896397 0.967959871 0.972478579 0.938452488)
New "Loadshape.IND-Tipo2_DU" 24 1.0 mult=(0.097013501 0.093723993 0.090406143 0.092699884 0.102741288 0.114404232 0.158166373 0.345209366 0.804437977 0.909741747 0.956883584 0.895988381 0.724947605 0.890170075 1 0.945692831 0.878766672 0.659960936 0.267706386 0.143142524 0.104992818 0.10895665 0.106104463 0.100073529)
New "Loadshape.IND-Tipo2_SA" 24 1.0 mult=(0.509355856 0.512339613 0.490670063 0.494122534 0.472830114 0.486535255 0.510091832 0.665957174 0.877324363 0.99760035 1 0.956593674 0.804754739 0.788718402 0.779022919 0.745794803 0.629947606 0.584437627 0.587968668 0.55034362 0.534611075 0.53090031 0.510769191 0.491643446)
New "Loadshape.IND-Tipo3_DO" 24 1.0 mult=(0.912287784 0.902736789 0.884757434 0.860915816 0.90599052 0.912979336 0.935602174 0.936451423 0.97302049 0.978193643 0.934641681 0.97045342 1 0.990965846 0.960341272 0.979642514 0.955020907 0.89638021 0.957193865 0.917304503 0.856254463 0.8817041 0.94441951 0.898947827)
New "Loadshape.IND-Tipo3_DU" 24 1.0 mult=(0.796653592 0.790545585 0.761576361 0.742856861 0.854913092 0.878601646 0.879216838 0.865451642 0.918473582 0.927925564 0.964614556 0.995334856 0.929407257 0.966302541 1 0.917363689 0.882894825 0.764580107 0.75546376 0.796847988 0.823161487 0.84615571 0.831886942 0.809178459)
New "Loadshape.IND-Tipo3_SA" 24 1.0 mult=(0.807977099 0.775932788 0.76232175 0.809606547 0.846473124 0.889442122 0.861731345 0.884404243 0.962246865 0.995381734 0.963724946 1 0.941286104 0.949138871 0.954129444 0.905668422 0.94571454 0.868623282 0.906886479 0.886569331 0.915249668 0.905583016 0.831251993 0.78640243)
New "Loadshape.IND-Tipo4_DO" 24 1.0 mult=(0.723664847 0.741869815 0.711312937 0.725910636 0.63986203 0.68983462 0.652252922 0.706749838 0.799311498 0.797965848 0.926653949 0.809440265 0.811276676 0.734165234 0.787911345 0.801735385 0.851794935 0.890924908 1 0.969397948 0.974642704 0.875039903 0.827529108 0.747876624)
New "Loadshape.IND-Tipo4_DU" 24 1.0 mult=(0.405944033 0.365481937 0.385495428 0.369978533 0.402359844 0.41365711 0.463169841 0.592654389 0.715312028 0.79262208 0.86228269 0.853025614 0.758859944 0.842996228 0.930820016 0.951002796 0.9705767 0.937082354 0.998355253 1 0.890322636 0.754734871 0.61986595 0.51294732)
New "Loadshape.IND-Tipo4_SA" 24 1.0 mult=(0.571261978 0.532036541 0.504708213 0.535441564 0.551222515 0.59720068 0.694801682 0.727121731 0.836068184 0.982375328 0.958848024 0.989478323 0.926682456 0.852278742 0.865668295 0.805564213 0.747225922 0.828057799 0.912640733 1 0.905323991 0.759299827 0.64406544 0.720925785)
New "Loadshape.IND-Tipo5_DO" 24 1.0 mult=(0.919041167 0.883242716 0.919388208 0.886760421 0.913274196 0.82748861 0.778241489 0.900153748 0.778564759 0.825101543 0.967395737 0.967037182 0.952909411 0.872388991 0.816927944 0.856778465 0.915151783 0.850919256 0.957719202 0.912565257 1 0.976642774 0.902391375 0.927836542)
New "Loadshape.IND-Tipo5_DU" 24 1.0 mult=(0.136773072 0.11762607 0.120642542 0.118095308 0.115642978 0.117569118 0.133107986 0.231967116 0.636695722 0.867311485 0.79844611 0.60957152 0.443566761 0.676752281 0.785898777 1 0.974095305 0.757844177 0.34064873 0.23703315 0.149739103 0.129109143 0.117231128 0.123726576)
New "Loadshape.IND-Tipo5_SA" 24 1.0 mult=(0.652809394 0.604216851 0.529460777 0.607301426 0.525821225 0.501132309 0.516931604 0.626856927 0.880042319 0.918883682 1 0.808070118 0.56192531 0.642003896 0.638488596 0.601012183 0.573403271 0.623778287 0.594331322 0.62003018 0.584016012 0.467467073 0.577726991 0.54131416)
New "Loadshape.IP-Tipo1_DO" 24 1.0 mult=(1 1 1 1 1 0.792 0.083 0 0 0 0 0 0 0 0 0 0 0.125 0.917 1 1 1 1 1)
New "Loadshape.IP-Tipo1_DU" 24 1.0 mult=(1 1 1 1 1 0.792 0.083 0 0 0 0 0 0 0 0 0 0 0.125 0.917 1 1 1 1 1)
New "Loadshape.IP-Tipo1_SA" 24 1.0 mult=(1 1 1 1 1 0.792 0.083 0 0 0 0 0 0 0 0 0 0 0.125 0.917 1 1 1 1 1)
New "Loadshape.RES-Tipo1_DO" 24 1.0 mult=(0.830054054 0.831916686 0.838337529 0.760206281 0.755003656 0.759979919 0.736674369 0.795959314 0.86881511 0.811887996 0.908860044 0.905297058 0.940028686 1 0.975204204 0.986210649 0.909754271 0.789232591 0.935257114 0.990866761 0.943144971 0.96899628 0.912471639 0.883079225)
New "Loadshape.RES-Tipo1_DU" 24 1.0 mult=(0.13500199 0.126511754 0.126211431 0.138313981 0.146991851 0.164850512 0.223419289 0.348457718 0.574895714 0.717508709 0.777660835 0.672393775 0.764610844 0.925692795 1 0.958561463 0.903603019 0.626621452 0.302867875 0.268504763 0.167301596 0.162673524 0.144323144 0.139709914)
New "Loadshape.RES-Tipo1_SA" 24 1.0 mult=(0.50732124 0.51945345 0.464474992 0.483961138 0.499667402 0.455898461 0.447336277 0.636971915 0.87743299 0.999098602 1 0.931399881 0.905800108 0.768234835 0.752521201 0.713336604 0.682987434 0.69832714 0.677260852 0.592423917 0.556524278 0.600104691 0.570801441 0.545937952)
New "Loadshape.RES-Tipo2_DO" 24 1.0 mult=(0.760524247 0.707026755 0.676477835 0.652959493 0.582211953 0.580825182 0.658813404 0.589750249 0.618122692 0.751287554 0.720309623 0.797087595 0.846809745 0.781023847 0.794143153 0.817551045 0.807263828 0.820012858 0.931547075 0.963091886 0.999101765 1 0.916269663 0.85240724)
New "Loadshape.RES-Tipo2_DU" 24 1.0 mult=(0.793538273 0.673555599 0.611217652 0.579400206 0.530855056 0.550065784 0.636459488 0.540935572 0.533905696 0.508542079 0.568929705 0.604514525 0.680260961 0.613632972 0.576891852 0.549514406 0.538293323 0.580038528 0.640794078 0.875936345 1 0.948344577 0.93516376 0.842291427)
New "Loadshape.RES-Tipo2_SA" 24 1.0 mult=(0.782139087 0.668730962 0.620320568 0.589917975 0.593634184 0.618727818 0.556086899 0.581158407 0.564138184 0.64356484 0.706395189 0.774390587 0.798144857 0.800831164 0.822904746 0.886973443 0.949604996 0.883417387 0.92948297 0.939841782 0.894474853 0.923711502 1 0.871850444)
New "Loadshape.RES-Tipo3_DO" 24 1.0 mult=(0.586261313 0.467761675 0.397763963 0.380811436 0.362444195 0.370313276 0.396343507 0.430469925 0.466549642 0.525852206 0.6169829 0.61699912 0.663699433 0.599646933 0.680949614 0.646220121 0.729664112 0.902367239 1 0.936096163 0.870552879 0.826760045 0.740812235 0.62012844)
New "Loadshape.RES-Tipo3_DU" 24 1.0 pmult=(0.339712748 0.288706154 0.260079934 0.262849898 0.269070233 0.349274106 0.482100074 0.388035815 0.320042487 0.355436384 0.369888834 0.461894995 0.570486719 0.423907845 0.372792205 0.363237571 0.39152519 0.44497328 0.750816822 0.948467123 1 0.951673204 0.687307513 0.527135526) qmult=(0.339712748 0.288706154 0.260079934 0.262849898 0.269070233 0.349274106 0.482100074 0.388035815 0.320042487 0.355436384 0.369888834 0.461894995 0.570486719 0.423907845 0.372792205 0.363237571 0.39152519 0.44497328 0.750816822 0.948467123 1 0.951673204 0.687307513 0.527135526)
New "Loadshape.RES-Tipo3_SA" 24 1.0 mult=(0.557902769 0.420287414 0.360868204 0.321615742 0.319048041 0.359724362 0.373368554 0.453078011 0.518335966 0.454120315 0.544613772 0.59748458 0.761015448 0.670826159 0.666679464 0.66555588 0.713805079 0.701587372 0.867628258 1 0.933022946 0.871474839 0.836387654 0.672212423)
New "Loadshape.RES-Tipo4_DO" 24 1.0 mult=(0.819737496 0.754668227 0.724204705 0.708017779 0.685917106 0.668084418 0.698310579 0.724673163 0.770635305 0.861487696 0.86038997 0.847234919 0.868211714 0.854204321 0.890290658 0.867566529 0.947855896 0.999299758 0.965812973 0.995986813 1 0.976448204 0.888138592 0.858545196)
New "Loadshape.RES-Tipo4_DU" 24 1.0 mult=(0.735127258 0.692937834 0.657907527 0.641839744 0.656434903 0.655600674 0.708583875 0.715553582 0.762789802 0.827017653 0.798552865 0.861683203 0.915764869 0.872031264 0.872283536 0.914817553 0.902968321 0.968777708 0.996743553 1 0.963935277 0.854534229 0.8203672 0.791623758)
New "Loadshape.RES-Tipo4_SA" 24 1.0 mult=(0.711381771 0.657082084 0.641643136 0.617324871 0.632303637 0.630121552 0.672231608 0.662631482 0.692446303 0.779193789 0.734119329 0.808955078 0.888041466 0.864782093 0.888943625 0.884571742 0.877305349 0.886041965 1 0.995087642 0.981315133 0.917358107 0.906471468 0.814629096)
New "Loadshape.RES-Tipo5_DO" 24 1.0 mult=(0.564424296 0.48492743 0.452057607 0.447066746 0.433401058 0.435869681 0.471269529 0.52229761 0.590914529 0.596766071 0.695090715 0.794873678 0.75726351 0.687904012 0.646929685 0.712645097 0.806295145 0.87290718 0.93388582 1 0.868668294 0.860800077 0.770768911 0.687569572)
New "Loadshape.RES-Tipo5_DU" 24 1.0 mult=(0.342607212 0.316217037 0.276834928 0.281022205 0.274548418 0.309642785 0.369614669 0.390001152 0.400568654 0.490478548 0.474837581 0.549767552 0.53846227 0.531802422 0.59467129 0.55973633 0.642632228 0.770696944 1 0.792384113 0.664112253 0.600763973 0.496828851 0.470755453)
New "Loadshape.RES-Tipo5_SA" 24 1.0 mult=(0.519070595 0.483123879 0.461619059 0.414744945 0.385346147 0.422908018 0.472724712 0.511942603 0.58417379 0.591199225 0.695806814 0.809302257 0.810768367 0.778874743 0.848697771 0.82437195 0.832499631 0.926317281 0.872026947 1 0.889654298 0.883931918 0.692699417 0.696947592)
New "Loadshape.RUR-Tipo1_DO" 24 1.0 mult=(0.545709612 0.416354751 0.458495661 0.348398476 0.37610891 0.413447827 0.478878183 0.50331924 0.691304656 0.687655856 0.777912448 0.721499931 0.703835863 0.715068245 0.741336836 0.801767375 0.742840199 0.736748172 0.905699378 1 0.971674346 0.824774225 0.629253738 0.518740414)
New "Loadshape.RUR-Tipo1_DU" 24 1.0 mult=(0.488907979 0.350043749 0.316411675 0.289694559 0.295094181 0.354472772 0.438409844 0.427372163 0.432298291 0.446081187 0.522223851 0.586134564 0.445286874 0.446641074 0.462804546 0.489673979 0.477356007 0.625318866 0.709085678 0.983121363 1 0.709948184 0.568309274 0.444172832)
New "Loadshape.RUR-Tipo1_SA" 24 1.0 mult=(0.499956218 0.404030139 0.387603592 0.329889128 0.38471267 0.384296253 0.42089147 0.6459736 0.681941453 0.683270558 0.864859123 0.609919972 0.615017639 0.691837323 0.686261683 0.677698774 0.685808399 0.842692602 1 0.983462368 0.927732636 0.885093681 0.739471103 0.604532815)
New "Loadshape.RUR-Tipo2_DO" 24 1.0 mult=(0.428343601 0.394392204 0.415619217 0.406342048 0.333635656 0.436140053 0.491360287 0.606848173 0.814583504 0.939567549 0.948972007 1 0.867897783 0.753641874 0.737356274 0.713658745 0.842623573 0.597740453 0.649251935 0.545422962 0.583227921 0.527777327 0.427137094 0.375893305)
New "Loadshape.RUR-Tipo2_DU" 24 1.0 mult=(0.266512167 0.276031003 0.290518833 0.266851307 0.273943315 0.282474266 0.359726129 0.515692975 0.708195644 0.914728605 0.987106751 0.986527308 0.979688183 0.871805916 1 0.881242854 0.784762695 0.676498741 0.505028384 0.361380702 0.387999906 0.411345908 0.349423257 0.279283774)
New "Loadshape.RUR-Tipo2_SA" 24 1.0 mult=(0.384775109 0.354197738 0.396334796 0.403664602 0.439090589 0.45376913 0.560887585 0.635704372 0.657846131 0.8374342 0.941692889 1 0.973533396 0.909869213 0.927206835 0.866240807 0.864545286 0.770006832 0.84100805 0.758353188 0.729510726 0.582731202 0.507244863 0.422987362)
New "Loadshape.RUR-Tipo3_DO" 24 1.0 mult=(0.691665287 0.586879212 0.584793315 0.582154446 0.559181487 0.555673354 0.600337604 0.64709221 0.700810011 0.722792269 0.70813849 0.80352517 0.855643059 0.850480158 0.839051563 0.94606417 0.840354967 0.935616624 0.976931476 1 0.920201398 0.785534995 0.756972043 0.727379563)
New "Loadshape.RUR-Tipo3_DU" 24 1.0 mult=(0.492722906 0.469731433 0.445735093 0.45205613 0.43950062 0.439742116 0.505267207 0.4434598 0.483742564 0.545524226 0.515835019 0.587293036 0.627661686 0.600435516 0.605640514 0.702689471 0.66522466 0.767406199 0.994181762 1 0.877777463 0.817171727 0.789511957 0.686563353)
New "Loadshape.RUR-Tipo3_SA" 24 1.0 mult=(0.64325241 0.579283278 0.538441065 0.550789851 0.496269437 0.495360521 0.551793998 0.620131036 0.653229367 0.760905683 0.723011619 0.774521981 1 0.991710281 0.936900107 0.874585387 0.873498129 0.899892921 0.996989918 0.949293023 0.99500089 0.939447294 0.881911908 0.767524222)
New "Loadshape.RUR-Tipo4_DO" 24 1.0 mult=(0.253600827 0.274289837 0.272758039 0.261763608 0.313497599 0.574144329 0.977008343 1 0.86131981 0.656612503 0.704811398 0.594720597 0.494496465 0.525942492 0.456354322 0.477346979 0.819592145 0.891769603 0.848416996 0.687937466 0.622513104 0.456587668 0.364268203 0.275604916)
New "Loadshape.RUR-Tipo4_DU" 24 1.0 mult=(0.230234808 0.210264185 0.232021549 0.19465865 0.271250039 0.45295282 0.853597086 1 0.763484469 0.51961849 0.46238919 0.352144856 0.297198145 0.322001025 0.328658792 0.335164833 0.504772434 0.670848062 0.740162981 0.577970176 0.436642229 0.314543468 0.271534627 0.239841506)
New "Loadshape.RUR-Tipo4_SA" 24 1.0 mult=(0.32864651 0.284755287 0.295288706 0.29507712 0.407496265 0.597286794 0.969546181 1 0.652377553 0.684330598 0.647208686 0.506768846 0.544728343 0.598239103 0.498791601 0.52752288 0.848566006 0.931782477 0.946950796 0.705464289 0.632465221 0.561954584 0.500101046 0.361948566)
New "Loadshape.RUR-Tipo5_DO" 24 1.0 mult=(0.697930719 0.622011112 0.616139477 0.605543618 0.598607117 0.665195255 0.70265488 0.709514854 0.834142807 0.842607626 0.92273159 0.856570939 0.950508358 0.940212398 0.963061552 0.95091989 0.941330621 1 0.963292832 0.973325245 0.832942318 0.819035632 0.771595124 0.699331111)
New "Loadshape.RUR-Tipo5_DU" 24 1.0 mult=(0.570289237 0.529492614 0.504505869 0.523514394 0.531195619 0.612658733 0.674623356 0.632838544 0.787320984 0.751335905 0.862596092 0.899290651 0.960527213 0.972713095 0.996531956 1 0.975065518 0.918612134 0.900329955 0.937180995 0.8686046 0.840110184 0.727064407 0.6342258)
New "Loadshape.RUR-Tipo5_SA" 24 1.0 mult=(0.621152257 0.575972523 0.554224311 0.541331865 0.541602389 0.624112337 0.653290095 0.643808088 0.688962461 0.804283627 0.82522681 0.849046503 0.874769484 0.90458687 0.949978757 0.914764085 1 0.981050064 0.95128242 0.981704992 0.860949158 0.79444955 0.715318293 0.670719687)
New "Loadshape.RUR-Tipo6_DO" 24 1.0 mult=(0.907975634 0.854989169 0.863564676 0.838245214 0.810893901 0.822908372 0.746688666 0.801326809 0.788112293 0.750036905 0.844225013 0.90555286 0.850325081 0.889718523 0.806141311 0.791418528 0.755869367 0.852736075 0.870781075 1 0.994465073 0.916097576 0.962417101 0.904580111)
New "Loadshape.RUR-Tipo6_DU" 24 1.0 mult=(1 0.954780078 0.948490725 0.909837842 0.910009661 0.864677534 0.731178849 0.746740132 0.684279846 0.690400673 0.653982969 0.621057299 0.701673647 0.623101993 0.683599472 0.726318762 0.7617241 0.755727211 0.855420158 0.986587963 0.98254545 0.887304721 0.915977583 0.861181834)
New "Loadshape.RUR-Tipo6_SA" 24 1.0 mult=(0.797019311 0.821649946 0.773201417 0.755662902 0.757896804 0.696775381 0.658731988 0.641763413 0.670430619 0.661351863 0.762470746 0.774248244 0.729343459 0.71629351 0.796277621 0.778626944 0.714736512 0.782018515 0.934112575 1 0.88953565 0.887204589 0.836699337 0.830304839)
New "Loadshape.SP-Tipo1_DO" 24 1.0 mult=(0.994323549 1 0.982452468 0.979405382 0.933443583 0.946425319 0.962154736 0.928721497 0.946113047 0.95852924 0.97109045 0.961192475 0.943099348 0.94980954 0.95142101 0.94370866 0.944182158 0.954461366 0.951242782 0.957841552 0.963112796 0.977002457 0.986820901 0.974316105)
New "Loadshape.SP-Tipo1_DU" 24 1.0 mult=(0.981337621 0.984664306 0.966688054 0.932911313 0.92928587 0.943861266 0.954935809 1 0.990457525 0.972693041 0.96834215 0.958801789 0.975126849 0.988824728 0.985564699 0.980128315 0.980567089 0.980636813 0.971611733 0.98348239 0.985253988 0.972317482 0.973095441 0.956670836)
New "Loadshape.SP-Tipo1_SA" 24 1.0 mult=(0.959947059 0.955453567 0.938249255 0.897796639 0.915397438 0.909016001 0.91934954 0.928083686 0.944596571 0.949153064 0.969306905 0.973780298 0.985822175 0.985965352 0.965432541 0.977479769 0.987593723 0.986310082 0.981666247 0.988439502 0.995135789 0.994840313 0.997392772 1)
New "Loadshape.SP-Tipo2_DO" 24 1.0 mult=(0.540352405 0.512437447 0.481841806 0.367157936 0.46959157 0.468875911 0.435245154 0.466618542 0.644784716 0.840287651 0.997660062 0.971941171 0.864423769 1 0.931870783 0.838408497 0.873781209 0.746967636 0.8765437 0.846218886 0.653481051 0.796412672 0.695722101 0.57417046)
New "Loadshape.SP-Tipo2_DU" 24 1.0 mult=(0.536690492 0.420774217 0.256640119 0.144786783 0.261731862 0.330185806 0.335680128 0.538264002 0.693208572 0.847694615 0.683798836 1 0.935989185 0.993461843 0.902889855 0.684829474 0.864935877 0.868699236 0.631623184 0.852864841 0.95560041 0.796901587 0.60162106 0.528564215)
New "Loadshape.SP-Tipo2_SA" 24 1.0 mult=(0.628143658 0.452813222 0.367334308 0.290644548 0.401314757 0.387551354 0.463685006 0.601638955 0.586699233 0.66848743 0.768461627 0.945677237 0.986245868 1 0.860179832 0.936456188 0.798888654 0.891972599 0.970404418 0.889160148 0.759674895 0.654256925 0.627787762 0.526733258)
New "Loadshape.SP-Tipo3_DO" 24 1.0 mult=(0.590142841 0.348897803 0.310623242 0.096806532 0.385933477 0.402974071 0.564301215 0.613866821 0.755013349 0.849427427 0.975662305 1 0.944625714 0.931865715 0.907351967 0.843310555 0.88957433 0.966483184 0.983548937 0.994726747 0.907635908 0.809796946 0.745352837 0.651852212)
New "Loadshape.SP-Tipo3_DU" 24 1.0 mult=(0.424066951 0.256385921 0.168299019 0.061154038 0.347668924 0.349022749 0.527536702 0.715485944 0.851557615 0.865636691 0.907363011 0.995813504 0.949322646 0.928271681 0.818379246 0.836170855 0.869829295 0.893180316 0.951108638 1 0.940280705 0.83455895 0.794829166 0.623973103)
New "Loadshape.SP-Tipo3_SA" 24 1.0 mult=(0.520829626 0.354103717 0.159642403 0.050086259 0.401494858 0.376680658 0.51816767 0.659624237 0.802788677 0.902117205 0.991211346 1 0.957338809 0.949195467 0.932806666 0.928744027 0.941770559 0.959087831 0.8998583 0.822460615 0.794439135 0.703767128 0.593504332 0.595759075)
New "Loadshape.SP-Tipo4_DO" 24 1.0 mult=(0.752355373 0.521937172 0.577261891 0.459196102 0.416933934 0.560455382 0.61754234 0.606959744 0.483316165 0.507645749 0.69118558 0.686957941 0.592826621 0.607200055 0.637210542 0.595076614 0.492582595 0.658131742 0.892368529 1 0.958984747 0.872989183 0.856390618 0.950217261)
New "Loadshape.SP-Tipo4_DU" 24 1.0 mult=(0.916177771 0.786026408 0.942917325 0.893853416 1 0.887961478 0.527556864 0.439433301 0.395319564 0.559904302 0.565572557 0.660845931 0.500265732 0.408973148 0.370382302 0.30901386 0.286268341 0.308145827 0.650435873 0.904746354 0.995217694 0.881508758 0.69345459 0.800489029)
New "Loadshape.SP-Tipo4_SA" 24 1.0 mult=(1 0.944670622 0.871522379 0.677856525 0.604264624 0.625238168 0.521741864 0.672211762 0.700479111 0.622936791 0.659712815 0.79403595 0.742253853 0.704543241 0.63459774 0.743429995 0.783665589 0.754059099 0.843794022 0.978443725 0.835413344 0.769394836 0.793394106 0.885251908)
New "Loadshape.CURVA" 24 1.0 mult=(0.63431595 0.5781472 0.53907255 0.53100273 0.525749 0.5497442 0.58774194 0.57231744 0.60902958 0.66933898 0.68768531 0.7447487 0.79201143 0.74954746 0.76405228 0.75331663 0.77208036 0.81570054 0.97013191 1.0 0.97971692 0.92489638 0.8190189 0.74192983) qmult=(0.57151726 0.51464415 0.47607553 0.46821595 0.46296368 0.48604702 0.5237456 0.50838673 0.54647068 0.61033922 0.63035948 0.69150093 0.74493019 0.6987781 0.71553876 0.703765 0.72365629 0.77090208 0.9596657 1.0 0.97331006 0.90212777 0.77270589 0.68527089)
