! Criaçăo da seçăo de curvas MT
New "Loadshape.MT-Tipo1_DO" 24 1.0 mult=(0.650099582 0.627029863 0.606051433 0.623577645 0.593053667 0.594467076 0.59605489 0.420801023 0.483122399 0.450333032 0.449351289 0.442529473 0.599437535 0.716985673 0.79225077 0.717806216 0.792592602 0.680060671 0.824941604 1 0.861456721 0.913179364 0.866522808 0.656799848)
New "Loadshape.MT-Tipo1_DU" 24 1.0 mult=(0.376117368 0.339566109 0.329313901 0.31281004 0.328690188 0.321440312 0.299313265 0.324110429 0.347908511 0.426836397 0.459452251 0.454217377 0.499874214 0.552276007 0.674420871 0.660868939 0.629693235 0.681849812 0.862342524 0.950144921 1 0.921185704 0.757337917 0.569582569)
New "Loadshape.MT-Tipo1_SA" 24 1.0 mult=(0.460632818 0.439175717 0.433865478 0.43113838 0.444595 0.433965006 0.438534906 0.354652273 0.412717386 0.530854216 0.559757059 0.564908766 0.613500726 0.767678456 0.84138537 0.832982864 0.794217122 0.817766734 0.872037541 1 0.942485026 0.924342746 0.757938145 0.594582723)
New "Loadshape.MT-Tipo2_DO" 24 1.0 mult=(0.836593463 0.791921181 0.789634782 0.775117477 0.757570656 0.743926297 0.780593545 0.776427103 0.801515808 0.863297265 0.89445163 0.929196146 0.929588848 0.873780357 0.902294416 0.898023775 0.908091556 0.912848682 0.949210892 1 0.979100405 0.943673472 0.864936023 0.829478204)
New "Loadshape.MT-Tipo2_DU" 24 1.0 mult=(0.451167075 0.409903442 0.39352769 0.398629632 0.390878996 0.418012563 0.520303316 0.681329572 0.841294551 0.877918089 0.924041521 0.916185638 0.901048277 0.954954192 1 0.999082913 0.982505589 0.887576212 0.823379416 0.779892867 0.743298015 0.691346903 0.595582193 0.531057723)
New "Loadshape.MT-Tipo2_SA" 24 1.0 mult=(0.721298691 0.664210712 0.641651573 0.638259492 0.642655315 0.645333386 0.729425641 0.759512755 0.887646497 0.984609774 0.977431117 1 0.979452373 0.943702949 0.956772684 0.925870677 0.90556749 0.853401669 0.83799386 0.865566604 0.844095519 0.793235712 0.745013463 0.691382803)
New "Loadshape.MT-Tipo3_DO" 24 1.0 mult=(0.650628013 0.641807664 0.698559214 0.754674557 0.750419099 0.739847524 0.821405949 0.794082146 0.835386064 0.867720999 0.795037163 0.829420708 0.88184853 0.936507285 0.958120612 1 0.964226296 0.844470041 0.825970167 0.801588132 0.807063107 0.861927636 0.855864154 0.761331969)
New "Loadshape.MT-Tipo3_DU" 24 1.0 mult=(0.725338973 0.695034864 0.710486328 0.71316084 0.678455232 0.682661101 0.767538489 0.720487896 0.747832087 0.853738559 0.859798262 0.860568743 0.906978362 0.939265734 0.986928614 1 0.981544813 0.780622763 0.131079836 0.075969415 0.100714568 0.541673209 0.691263349 0.658588188)
New "Loadshape.MT-Tipo3_SA" 24 1.0 mult=(0.815708697 0.758089793 0.748784992 0.743739317 0.735734837 0.708059511 0.812238246 0.863038194 0.933853209 0.998703259 0.997371679 1 0.992943969 0.891482284 0.907448145 0.920179464 0.888322804 0.938950352 0.912123305 0.899174539 0.8569688 0.806848803 0.713117291 0.695167944)
New "Loadshape.MT-Tipo4_DO" 24 1.0 mult=(0.9372069 0.913340071 0.924120654 0.93079313 0.93080706 0.90662624 0.923610473 0.899546091 0.88879239 0.923828157 0.920074949 0.962651545 0.930752824 0.939713743 0.944442843 0.914247606 0.959474966 0.918107991 0.98177698 0.979055353 0.981313691 1 0.977504593 0.97030263)
New "Loadshape.MT-Tipo4_DU" 24 1.0 mult=(0.068380784 0.072902194 0.07320887 0.074853826 0.09488548 0.133892415 0.240677361 0.496583898 0.809199761 0.986289575 1 0.919725739 0.644329 0.813138006 0.906526261 0.896488313 0.83020632 0.490628285 0.155145748 0.113550237 0.09199926 0.079839385 0.073835162 0.065458)
New "Loadshape.MT-Tipo4_SA" 24 1.0 mult=(0.451636486 0.469215417 0.48231429 0.459130883 0.485121279 0.50991594 0.600888847 0.783570743 0.909264978 0.940325587 1 0.885955813 0.684916357 0.63802952 0.634656045 0.607756158 0.526509761 0.512734851 0.488787104 0.481542029 0.460774028 0.453182774 0.46042356 0.460961122)
New "Loadshape.MT-Tipo5_DO" 24 1.0 mult=(0.872185009 0.84919434 0.828177964 0.813136214 0.803863704 0.810793976 0.795698315 0.752241578 0.813461623 0.835635588 0.890504461 0.943046932 0.989950992 1 0.990723068 0.986333425 0.941170704 0.945249741 0.979016123 0.994865858 0.986954475 0.946229571 0.925206267 0.895263816)
New "Loadshape.MT-Tipo5_DU" 24 1.0 mult=(0.232695218 0.214912145 0.211880097 0.207860637 0.204897558 0.204835446 0.217474329 0.280766628 0.484914103 0.65052207 0.799093554 0.91562699 0.909374873 0.967799262 1 0.994650363 0.965834712 0.79833248 0.559561959 0.396060235 0.277833595 0.261619131 0.256033802 0.232636697)
New "Loadshape.MT-Tipo5_SA" 24 1.0 mult=(0.725299926 0.711143316 0.709060626 0.700734753 0.686253676 0.670257232 0.666779552 0.666830229 0.788221962 0.852701003 0.926544757 0.958460919 0.969545313 0.976715388 0.989817395 1 0.948784365 0.88408451 0.855135033 0.830330461 0.850849983 0.818698333 0.76714322 0.743953653)
New "Loadshape.MT-Tipo6_DO" 24 1.0 mult=(0.939966145 0.917299513 0.902773134 0.852551351 0.858210887 0.869823196 0.850446913 0.884814541 0.865937218 0.844922466 0.901493795 0.921336674 0.938826239 0.951780049 0.946908401 0.993165392 1 0.988010867 0.992744421 0.968196033 0.985129665 0.980731957 0.965657444 0.939306661)
New "Loadshape.MT-Tipo6_DU" 24 1.0 mult=(0.813946562 0.804669181 0.78740113 0.734498288 0.747015899 0.760501255 0.787259893 0.825644882 0.837680443 0.907030855 0.914012139 0.930304665 0.94089402 0.94882179 0.980591208 0.977440851 1 0.973871753 0.905171091 0.911273875 0.88316805 0.875828468 0.846262175 0.84141267)
New "Loadshape.MT-Tipo6_SA" 24 1.0 mult=(0.865202908 0.858464169 0.840552209 0.793297715 0.801181945 0.807996591 0.822039417 0.853726343 0.836547533 0.909884246 0.925116507 0.907002455 0.911272116 0.947479982 0.962796814 0.95994756 1 0.959584029 0.913585828 0.936949365 0.915603542 0.894951732 0.900659829 0.889202324)
